best_conformers_12.pdb
 OpenBabel02212512003D

 76 82  0  0  1  0  0  0  0  0999 V2000
  -10.0030    1.4070  -25.6360 O   0  0  0  0  0  0  0  0  0  0  0  0
   -9.6720    0.3740  -25.0510 C   0  0  0  0  0  0  0  0  0  0  0  0
  -10.6560   -0.5030  -24.3400 C   0  0  0  0  0  0  0  0  0  0  0  0
  -12.0140   -0.3120  -24.5890 C   0  0  0  0  0  0  0  0  0  0  0  0
  -12.9630   -0.9220  -23.7920 C   0  0  0  0  0  0  0  0  0  0  0  0
  -12.5330   -1.7260  -22.7360 C   0  0  0  0  0  0  0  0  0  0  0  0
  -13.7160   -2.4390  -21.6720 Cl  0  0  0  0  0  0  0  0  0  0  0  0
  -11.1890   -1.9700  -22.5100 C   0  0  0  0  0  0  0  0  0  0  0  0
  -10.2250   -1.4090  -23.3570 C   0  0  0  0  0  0  0  0  0  0  0  0
   -8.7510   -1.6680  -23.1170 C   0  0  1  0  0  0  0  0  0  0  0  0
   -7.9720   -1.2760  -24.3920 C   0  0  0  0  0  0  0  0  0  0  0  0
   -8.3720    0.0130  -24.9260 N   0  0  0  0  0  0  0  0  0  0  0  0
   -7.3700    0.9420  -25.4060 C   0  0  0  0  0  0  0  0  0  0  0  0
   -7.0240    2.0720  -24.4260 C   0  0  0  0  0  0  0  0  0  0  0  0
   -7.9800    3.2130  -24.4210 N   0  3  0  0  0  0  0  0  0  0  0  0
   -7.2590    4.5490  -24.4010 C   0  0  0  0  0  0  0  0  0  0  0  0
   -8.2740    5.6850  -24.1640 C   0  0  0  0  0  0  0  0  0  0  0  0
   -9.5820    5.2160  -24.4130 O   0  0  0  0  0  0  0  0  0  0  0  0
   -9.9720    4.2970  -23.4120 C   0  0  0  0  0  0  0  0  0  0  0  0
   -8.9620    3.1390  -23.2820 C   0  0  0  0  0  0  0  0  0  0  0  0
   -8.4180    3.1880  -22.3350 H   0  0  0  0  0  0  0  0  0  0  0  0
   -9.4750    2.1780  -23.3110 H   0  0  0  0  0  0  0  0  0  0  0  0
  -10.9560    3.9310  -23.7180 H   0  0  0  0  0  0  0  0  0  0  0  0
  -10.0800    4.8140  -22.4440 H   0  0  0  0  0  0  0  0  0  0  0  0
   -8.1030    6.5260  -24.8420 H   0  0  0  0  0  0  0  0  0  0  0  0
   -8.1940    6.0680  -23.1320 H   0  0  0  0  0  0  0  0  0  0  0  0
   -6.5090    4.5440  -23.6040 H   0  0  0  0  0  0  0  0  0  0  0  0
   -6.7280    4.6820  -25.3480 H   0  0  0  0  0  0  0  0  0  0  0  0
   -8.5600    3.1740  -25.2800 H   0  0  0  0  0  0  0  0  0  0  0  0
   -6.9370    1.6720  -23.4080 H   0  0  0  0  0  0  0  0  0  0  0  0
   -6.0390    2.4530  -24.7080 H   0  0  0  0  0  0  0  0  0  0  0  0
   -7.7380    1.3630  -26.3450 H   0  0  0  0  0  0  0  0  0  0  0  0
   -6.4660    0.3630  -25.6140 H   0  0  0  0  0  0  0  0  0  0  0  0
   -6.8990   -1.2440  -24.1720 H   0  0  0  0  0  0  0  0  0  0  0  0
   -8.1370   -2.0480  -25.1480 H   0  0  0  0  0  0  0  0  0  0  0  0
   -8.2680   -0.8070  -21.9280 C   0  0  0  0  0  0  0  0  0  0  0  0
   -8.5220    0.3620  -21.7130 O   0  0  0  0  0  0  0  0  0  0  0  0
   -7.4720   -1.5760  -21.1220 N   0  0  0  0  0  0  0  0  0  0  0  0
   -6.7070   -1.0010  -20.0800 C   0  0  0  0  0  0  0  0  0  0  0  0
   -7.0520   -1.2460  -18.7750 C   0  0  0  0  0  0  0  0  0  0  0  0
   -6.4110   -0.7250  -17.7000 N   0  0  0  0  0  0  0  0  0  0  0  0
   -5.3770    0.0480  -17.9400 C   0  0  0  0  0  0  0  0  0  0  0  0
   -4.8990    0.3640  -19.2460 C   0  0  0  0  0  0  0  0  0  0  0  0
   -3.7670    1.2000  -19.4420 C   0  0  0  0  0  0  0  0  0  0  0  0
   -3.3200    1.4790  -20.7060 C   0  0  0  0  0  0  0  0  0  0  0  0
   -3.9790    0.9350  -21.8310 C   0  0  0  0  0  0  0  0  0  0  0  0
   -5.0750    0.1220  -21.6670 C   0  0  0  0  0  0  0  0  0  0  0  0
   -5.5740   -0.1730  -20.3610 C   0  0  0  0  0  0  0  0  0  0  0  0
   -5.5600   -0.3020  -22.5420 H   0  0  0  0  0  0  0  0  0  0  0  0
   -3.6190    1.1630  -22.8320 H   0  0  0  0  0  0  0  0  0  0  0  0
   -2.4590    2.1250  -20.8520 H   0  0  0  0  0  0  0  0  0  0  0  0
   -3.2720    1.6110  -18.5680 H   0  0  0  0  0  0  0  0  0  0  0  0
   -4.8490    0.4620  -17.0800 H   0  0  0  0  0  0  0  0  0  0  0  0
   -7.9140   -1.8770  -18.5610 H   0  0  0  0  0  0  0  0  0  0  0  0
   -7.2410   -2.9100  -21.6270 C   0  0  0  0  0  0  0  0  0  0  0  0
   -8.3790   -3.1090  -22.6410 C   0  0  2  0  0  0  0  0  0  0  0  0
   -8.0210   -4.1500  -23.7160 C   0  0  0  0  0  0  0  0  0  0  0  0
   -7.8300   -5.4720  -23.1630 N   0  0  0  0  0  0  0  0  0  0  0  0
   -6.6370   -6.0240  -22.8440 C   0  0  0  0  0  0  0  0  0  0  0  0
   -6.7140   -7.2670  -22.3260 N   0  0  0  0  0  0  0  0  0  0  0  0
   -5.5600   -7.8220  -22.0090 C   0  0  0  0  0  0  0  0  0  0  0  0
   -4.3310   -7.1920  -22.1550 C   0  0  0  0  0  0  0  0  0  0  0  0
   -4.3740   -5.9320  -22.7180 C   0  0  0  0  0  0  0  0  0  0  0  0
   -5.5140   -5.3260  -23.0620 N   0  0  0  0  0  0  0  0  0  0  0  0
   -3.4520   -5.3930  -22.9100 H   0  0  0  0  0  0  0  0  0  0  0  0
   -3.4070   -7.6770  -21.8670 H   0  0  0  0  0  0  0  0  0  0  0  0
   -5.6460   -8.8350  -21.6450 H   0  0  0  0  0  0  0  0  0  0  0  0
   -8.6190   -6.0750  -23.0060 H   0  0  0  0  0  0  0  0  0  0  0  0
   -8.7880   -4.1890  -24.5020 H   0  0  0  0  0  0  0  0  0  0  0  0
   -7.0770   -3.8770  -24.1840 H   0  0  0  0  0  0  0  0  0  0  0  0
   -9.2470   -3.4980  -22.1080 H   0  0  0  0  0  0  0  0  0  0  0  0
   -6.2590   -2.9800  -22.1160 H   0  0  0  0  0  0  0  0  0  0  0  0
   -7.2530   -3.6320  -20.8100 H   0  0  0  0  0  0  0  0  0  0  0  0
  -10.9040   -2.5740  -21.6550 H   0  0  0  0  0  0  0  0  0  0  0  0
  -14.0230   -0.7500  -23.9460 H   0  0  0  0  0  0  0  0  0  0  0  0
  -12.3060    0.3340  -25.4060 H   0  0  0  0  0  0  0  0  0  0  0  0
  1  2  2  0  0  0  0
  2  3  1  0  0  0  0
  2 12  1  0  0  0  0
  3  4  2  0  0  0  0
  3  9  1  0  0  0  0
  4  5  1  0  0  0  0
  4 76  1  0  0  0  0
  5  6  2  0  0  0  0
  5 75  1  0  0  0  0
  6  7  1  0  0  0  0
  6  8  1  0  0  0  0
  8  9  2  0  0  0  0
  8 74  1  0  0  0  0
 10  9  1  6  0  0  0
 10 11  1  0  0  0  0
 10 36  1  0  0  0  0
 10 56  1  0  0  0  0
 11 12  1  0  0  0  0
 11 34  1  0  0  0  0
 11 35  1  0  0  0  0
 12 13  1  0  0  0  0
 13 14  1  0  0  0  0
 13 32  1  0  0  0  0
 13 33  1  0  0  0  0
 14 15  1  0  0  0  0
 14 30  1  0  0  0  0
 14 31  1  0  0  0  0
 15 16  1  0  0  0  0
 15 20  1  0  0  0  0
 15 29  1  0  0  0  0
 16 17  1  0  0  0  0
 16 27  1  0  0  0  0
 16 28  1  0  0  0  0
 17 18  1  0  0  0  0
 17 25  1  0  0  0  0
 17 26  1  0  0  0  0
 18 19  1  0  0  0  0
 19 20  1  0  0  0  0
 19 23  1  0  0  0  0
 19 24  1  0  0  0  0
 20 21  1  0  0  0  0
 20 22  1  0  0  0  0
 36 37  2  0  0  0  0
 36 38  1  0  0  0  0
 38 39  1  0  0  0  0
 38 55  1  0  0  0  0
 39 40  2  0  0  0  0
 39 48  1  0  0  0  0
 40 41  1  0  0  0  0
 40 54  1  0  0  0  0
 41 42  2  0  0  0  0
 42 43  1  0  0  0  0
 42 53  1  0  0  0  0
 43 44  2  0  0  0  0
 43 48  1  0  0  0  0
 44 45  1  0  0  0  0
 44 52  1  0  0  0  0
 45 46  2  0  0  0  0
 45 51  1  0  0  0  0
 46 47  1  0  0  0  0
 46 50  1  0  0  0  0
 47 48  2  0  0  0  0
 47 49  1  0  0  0  0
 55 56  1  0  0  0  0
 55 72  1  0  0  0  0
 55 73  1  0  0  0  0
 56 57  1  0  0  0  0
 56 71  1  1  0  0  0
 57 58  1  0  0  0  0
 57 69  1  0  0  0  0
 57 70  1  0  0  0  0
 58 59  1  0  0  0  0
 58 68  1  0  0  0  0
 59 60  2  0  0  0  0
 59 64  1  0  0  0  0
 60 61  1  0  0  0  0
 61 62  2  0  0  0  0
 61 67  1  0  0  0  0
 62 63  1  0  0  0  0
 62 66  1  0  0  0  0
 63 64  2  0  0  0  0
 63 65  1  0  0  0  0
M  CHG  1  15   1
M  END
>  <MODEL>
       1

$$$$
