best_conformers_57.pdb
 OpenBabel02212512003D

 59 63  0  0  1  0  0  0  0  0999 V2000
   -7.3940   -0.7290  -29.7310 C   0  0  0  0  0  0  0  0  0  0  0  0
   -7.5900   -1.7650  -28.7400 N   0  0  0  0  0  0  0  0  0  0  0  0
   -6.9260   -1.6400  -27.5580 C   0  0  0  0  0  0  0  0  0  0  0  0
   -6.1410   -0.7340  -27.3200 O   0  0  0  0  0  0  0  0  0  0  0  0
   -7.2350   -2.7350  -26.5340 C   0  0  0  0  0  0  0  0  0  0  0  0
   -8.1450   -2.2400  -25.5130 N   0  0  0  0  0  0  0  0  0  0  0  0
   -7.6550   -1.5380  -24.3320 C   0  0  0  0  0  0  0  0  0  0  0  0
   -8.6210   -1.7620  -23.1310 C   0  0  2  0  0  0  0  0  0  0  0  0
   -8.1390   -0.8300  -22.0110 C   0  0  0  0  0  0  0  0  0  0  0  0
   -8.2900    0.3730  -21.9240 O   0  0  0  0  0  0  0  0  0  0  0  0
   -7.4290   -1.5830  -21.1040 N   0  0  0  0  0  0  0  0  0  0  0  0
   -6.6760   -0.9970  -20.0650 C   0  0  0  0  0  0  0  0  0  0  0  0
   -7.0360   -1.2390  -18.7670 C   0  0  0  0  0  0  0  0  0  0  0  0
   -6.4090   -0.7160  -17.6860 N   0  0  0  0  0  0  0  0  0  0  0  0
   -5.3740    0.0540  -17.9270 C   0  0  0  0  0  0  0  0  0  0  0  0
   -4.8780    0.3590  -19.2270 C   0  0  0  0  0  0  0  0  0  0  0  0
   -3.7420    1.1860  -19.4170 C   0  0  0  0  0  0  0  0  0  0  0  0
   -3.2740    1.4430  -20.6750 C   0  0  0  0  0  0  0  0  0  0  0  0
   -3.9120    0.8830  -21.8040 C   0  0  0  0  0  0  0  0  0  0  0  0
   -5.0160    0.0860  -21.6500 C   0  0  0  0  0  0  0  0  0  0  0  0
   -5.5350   -0.1860  -20.3490 C   0  0  0  0  0  0  0  0  0  0  0  0
   -5.5010   -0.3300  -22.5290 H   0  0  0  0  0  0  0  0  0  0  0  0
   -3.5250    1.0900  -22.7960 H   0  0  0  0  0  0  0  0  0  0  0  0
   -2.4050    2.0780  -20.8140 H   0  0  0  0  0  0  0  0  0  0  0  0
   -3.2640    1.6090  -18.5390 H   0  0  0  0  0  0  0  0  0  0  0  0
   -4.8660    0.4750  -17.0630 H   0  0  0  0  0  0  0  0  0  0  0  0
   -7.8970   -1.8800  -18.5770 H   0  0  0  0  0  0  0  0  0  0  0  0
   -7.2700   -2.9670  -21.4980 C   0  0  0  0  0  0  0  0  0  0  0  0
   -8.4720   -3.1990  -22.4380 C   0  0  0  0  0  0  0  0  0  0  0  0
   -9.7210   -3.5580  -21.6150 C   0  0  0  0  0  0  0  0  0  0  0  0
   -9.5160   -4.4150  -20.9700 H   0  0  0  0  0  0  0  0  0  0  0  0
  -10.5550   -3.8150  -22.2770 H   0  0  0  0  0  0  0  0  0  0  0  0
  -10.0500   -2.7450  -20.9690 H   0  0  0  0  0  0  0  0  0  0  0  0
   -8.1950   -4.3720  -23.3770 C   0  0  0  0  0  0  0  0  0  0  0  0
   -7.2730   -4.2270  -23.9490 H   0  0  0  0  0  0  0  0  0  0  0  0
   -9.0240   -4.4950  -24.0800 H   0  0  0  0  0  0  0  0  0  0  0  0
   -8.0950   -5.2920  -22.7870 H   0  0  0  0  0  0  0  0  0  0  0  0
   -6.3150   -3.1480  -22.0290 H   0  0  0  0  0  0  0  0  0  0  0  0
   -7.2700   -3.6050  -20.6140 H   0  0  0  0  0  0  0  0  0  0  0  0
  -10.0160   -1.3960  -23.5970 C   0  0  0  0  0  0  0  0  0  0  0  0
  -11.0030   -0.9980  -22.6850 C   0  0  0  0  0  0  0  0  0  0  0  0
  -12.3290   -0.9090  -23.0680 C   0  0  0  0  0  0  0  0  0  0  0  0
  -13.5570   -0.7810  -21.8450 Cl  0  0  0  0  0  0  0  0  0  0  0  0
  -12.6770   -0.9590  -24.4150 C   0  0  0  0  0  0  0  0  0  0  0  0
  -11.6750   -1.1960  -25.3390 C   0  0  0  0  0  0  0  0  0  0  0  0
  -10.3810   -1.5120  -24.9390 C   0  0  0  0  0  0  0  0  0  0  0  0
   -9.4260   -2.0670  -25.9420 C   0  0  0  0  0  0  0  0  0  0  0  0
   -9.7590   -2.3830  -27.0860 O   0  0  0  0  0  0  0  0  0  0  0  0
  -11.8660   -1.1370  -26.4040 H   0  0  0  0  0  0  0  0  0  0  0  0
  -13.7060   -0.8290  -24.7280 H   0  0  0  0  0  0  0  0  0  0  0  0
  -10.7370   -0.7680  -21.6660 H   0  0  0  0  0  0  0  0  0  0  0  0
   -7.5990   -0.4480  -24.5120 H   0  0  0  0  0  0  0  0  0  0  0  0
   -6.6400   -1.8860  -24.0830 H   0  0  0  0  0  0  0  0  0  0  0  0
   -7.7170   -3.5840  -27.0280 H   0  0  0  0  0  0  0  0  0  0  0  0
   -6.3120   -3.0760  -26.0590 H   0  0  0  0  0  0  0  0  0  0  0  0
   -8.4930   -2.2280  -28.6900 H   0  0  0  0  0  0  0  0  0  0  0  0
   -7.6500    0.2620  -29.3340 H   0  0  0  0  0  0  0  0  0  0  0  0
   -8.0170   -0.9470  -30.6000 H   0  0  0  0  0  0  0  0  0  0  0  0
   -6.3430   -0.7220  -30.0370 H   0  0  0  0  0  0  0  0  0  0  0  0
  1  2  1  0  0  0  0
  1 57  1  0  0  0  0
  1 58  1  0  0  0  0
  1 59  1  0  0  0  0
  2  3  1  0  0  0  0
  2 56  1  0  0  0  0
  3  4  2  0  0  0  0
  3  5  1  0  0  0  0
  5  6  1  0  0  0  0
  5 54  1  0  0  0  0
  5 55  1  0  0  0  0
  6  7  1  0  0  0  0
  6 47  1  0  0  0  0
  7  8  1  0  0  0  0
  7 52  1  0  0  0  0
  7 53  1  0  0  0  0
  8  9  1  1  0  0  0
  8 29  1  0  0  0  0
  8 40  1  0  0  0  0
  9 10  2  0  0  0  0
  9 11  1  0  0  0  0
 11 12  1  0  0  0  0
 11 28  1  0  0  0  0
 12 13  2  0  0  0  0
 12 21  1  0  0  0  0
 13 14  1  0  0  0  0
 13 27  1  0  0  0  0
 14 15  2  0  0  0  0
 15 16  1  0  0  0  0
 15 26  1  0  0  0  0
 16 17  2  0  0  0  0
 16 21  1  0  0  0  0
 17 18  1  0  0  0  0
 17 25  1  0  0  0  0
 18 19  2  0  0  0  0
 18 24  1  0  0  0  0
 19 20  1  0  0  0  0
 19 23  1  0  0  0  0
 20 21  2  0  0  0  0
 20 22  1  0  0  0  0
 28 29  1  0  0  0  0
 28 38  1  0  0  0  0
 28 39  1  0  0  0  0
 29 30  1  0  0  0  0
 29 34  1  0  0  0  0
 30 31  1  0  0  0  0
 30 32  1  0  0  0  0
 30 33  1  0  0  0  0
 34 35  1  0  0  0  0
 34 36  1  0  0  0  0
 34 37  1  0  0  0  0
 40 41  2  0  0  0  0
 40 46  1  0  0  0  0
 41 42  1  0  0  0  0
 41 51  1  0  0  0  0
 42 43  1  0  0  0  0
 42 44  2  0  0  0  0
 44 45  1  0  0  0  0
 44 50  1  0  0  0  0
 45 46  2  0  0  0  0
 45 49  1  0  0  0  0
 46 47  1  0  0  0  0
 47 48  2  0  0  0  0
M  END
>  <MODEL>
       1

$$$$
best_conformers_57.pdb
 OpenBabel02212512003D

 59 63  0  0  1  0  0  0  0  0999 V2000
   -7.4250   -0.7210  -29.7360 C   0  0  0  0  0  0  0  0  0  0  0  0
   -7.6110   -1.7590  -28.7450 N   0  0  0  0  0  0  0  0  0  0  0  0
   -6.9440   -1.6250  -27.5630 C   0  0  0  0  0  0  0  0  0  0  0  0
   -6.1660   -0.7140  -27.3280 O   0  0  0  0  0  0  0  0  0  0  0  0
   -7.2430   -2.7210  -26.5360 C   0  0  0  0  0  0  0  0  0  0  0  0
   -8.1510   -2.2290  -25.5120 N   0  0  0  0  0  0  0  0  0  0  0  0
   -7.6600   -1.5280  -24.3300 C   0  0  0  0  0  0  0  0  0  0  0  0
   -8.6240   -1.7560  -23.1270 C   0  0  2  0  0  0  0  0  0  0  0  0
   -8.1410   -0.8270  -22.0060 C   0  0  0  0  0  0  0  0  0  0  0  0
   -8.2930    0.3760  -21.9150 O   0  0  0  0  0  0  0  0  0  0  0  0
   -7.4300   -1.5830  -21.1020 N   0  0  0  0  0  0  0  0  0  0  0  0
   -6.6750   -0.9970  -20.0640 C   0  0  0  0  0  0  0  0  0  0  0  0
   -7.0360   -1.2390  -18.7650 C   0  0  0  0  0  0  0  0  0  0  0  0
   -6.4090   -0.7160  -17.6840 N   0  0  0  0  0  0  0  0  0  0  0  0
   -5.3740    0.0540  -17.9270 C   0  0  0  0  0  0  0  0  0  0  0  0
   -4.8780    0.3590  -19.2270 C   0  0  0  0  0  0  0  0  0  0  0  0
   -3.7430    1.1870  -19.4170 C   0  0  0  0  0  0  0  0  0  0  0  0
   -3.2750    1.4430  -20.6750 C   0  0  0  0  0  0  0  0  0  0  0  0
   -3.9130    0.8830  -21.8040 C   0  0  0  0  0  0  0  0  0  0  0  0
   -5.0170    0.0860  -21.6490 C   0  0  0  0  0  0  0  0  0  0  0  0
   -5.5350   -0.1860  -20.3480 C   0  0  0  0  0  0  0  0  0  0  0  0
   -5.5020   -0.3290  -22.5280 H   0  0  0  0  0  0  0  0  0  0  0  0
   -3.5270    1.0910  -22.7960 H   0  0  0  0  0  0  0  0  0  0  0  0
   -2.4060    2.0780  -20.8150 H   0  0  0  0  0  0  0  0  0  0  0  0
   -3.2640    1.6090  -18.5390 H   0  0  0  0  0  0  0  0  0  0  0  0
   -4.8640    0.4750  -17.0630 H   0  0  0  0  0  0  0  0  0  0  0  0
   -7.8970   -1.8800  -18.5750 H   0  0  0  0  0  0  0  0  0  0  0  0
   -7.2720   -2.9650  -21.4990 C   0  0  0  0  0  0  0  0  0  0  0  0
   -8.4750   -3.1950  -22.4390 C   0  0  0  0  0  0  0  0  0  0  0  0
   -8.1990   -4.3660  -23.3810 C   0  0  0  0  0  0  0  0  0  0  0  0
   -7.2780   -4.2190  -23.9550 H   0  0  0  0  0  0  0  0  0  0  0  0
   -9.0300   -4.4870  -24.0830 H   0  0  0  0  0  0  0  0  0  0  0  0
   -8.0980   -5.2870  -22.7930 H   0  0  0  0  0  0  0  0  0  0  0  0
   -9.7230   -3.5570  -21.6150 C   0  0  0  0  0  0  0  0  0  0  0  0
  -10.0510   -2.7460  -20.9660 H   0  0  0  0  0  0  0  0  0  0  0  0
  -10.5580   -3.8120  -22.2780 H   0  0  0  0  0  0  0  0  0  0  0  0
   -9.5180   -4.4160  -20.9720 H   0  0  0  0  0  0  0  0  0  0  0  0
   -6.3180   -3.1470  -22.0310 H   0  0  0  0  0  0  0  0  0  0  0  0
   -7.2730   -3.6060  -20.6160 H   0  0  0  0  0  0  0  0  0  0  0  0
  -10.0190   -1.3910  -23.5890 C   0  0  0  0  0  0  0  0  0  0  0  0
  -11.0060   -0.9970  -22.6770 C   0  0  0  0  0  0  0  0  0  0  0  0
  -12.3330   -0.9120  -23.0550 C   0  0  0  0  0  0  0  0  0  0  0  0
  -13.5600   -0.7950  -21.8310 Cl  0  0  0  0  0  0  0  0  0  0  0  0
  -12.6840   -0.9600  -24.4010 C   0  0  0  0  0  0  0  0  0  0  0  0
  -11.6820   -1.1930  -25.3270 C   0  0  0  0  0  0  0  0  0  0  0  0
  -10.3860   -1.5050  -24.9310 C   0  0  0  0  0  0  0  0  0  0  0  0
   -9.4330   -2.0550  -25.9370 C   0  0  0  0  0  0  0  0  0  0  0  0
   -9.7700   -2.3650  -27.0820 O   0  0  0  0  0  0  0  0  0  0  0  0
  -11.8760   -1.1350  -26.3900 H   0  0  0  0  0  0  0  0  0  0  0  0
  -13.7140   -0.8320  -24.7130 H   0  0  0  0  0  0  0  0  0  0  0  0
  -10.7400   -0.7670  -21.6580 H   0  0  0  0  0  0  0  0  0  0  0  0
   -6.6440   -1.8760  -24.0810 H   0  0  0  0  0  0  0  0  0  0  0  0
   -7.6040   -0.4380  -24.5070 H   0  0  0  0  0  0  0  0  0  0  0  0
   -7.7240   -3.5720  -27.0280 H   0  0  0  0  0  0  0  0  0  0  0  0
   -6.3180   -3.0590  -26.0660 H   0  0  0  0  0  0  0  0  0  0  0  0
   -8.5130   -2.2230  -28.6900 H   0  0  0  0  0  0  0  0  0  0  0  0
   -8.0490   -0.9430  -30.6040 H   0  0  0  0  0  0  0  0  0  0  0  0
   -6.3750   -0.7080  -30.0460 H   0  0  0  0  0  0  0  0  0  0  0  0
   -7.6860    0.2690  -29.3390 H   0  0  0  0  0  0  0  0  0  0  0  0
  1  2  1  0  0  0  0
  1 57  1  0  0  0  0
  1 58  1  0  0  0  0
  1 59  1  0  0  0  0
  2  3  1  0  0  0  0
  2 56  1  0  0  0  0
  3  4  2  0  0  0  0
  3  5  1  0  0  0  0
  5  6  1  0  0  0  0
  5 54  1  0  0  0  0
  5 55  1  0  0  0  0
  6  7  1  0  0  0  0
  6 47  1  0  0  0  0
  7  8  1  0  0  0  0
  7 52  1  0  0  0  0
  7 53  1  0  0  0  0
  8  9  1  1  0  0  0
  8 29  1  0  0  0  0
  8 40  1  0  0  0  0
  9 10  2  0  0  0  0
  9 11  1  0  0  0  0
 11 12  1  0  0  0  0
 11 28  1  0  0  0  0
 12 13  2  0  0  0  0
 12 21  1  0  0  0  0
 13 14  1  0  0  0  0
 13 27  1  0  0  0  0
 14 15  2  0  0  0  0
 15 16  1  0  0  0  0
 15 26  1  0  0  0  0
 16 17  2  0  0  0  0
 16 21  1  0  0  0  0
 17 18  1  0  0  0  0
 17 25  1  0  0  0  0
 18 19  2  0  0  0  0
 18 24  1  0  0  0  0
 19 20  1  0  0  0  0
 19 23  1  0  0  0  0
 20 21  2  0  0  0  0
 20 22  1  0  0  0  0
 28 29  1  0  0  0  0
 28 38  1  0  0  0  0
 28 39  1  0  0  0  0
 29 30  1  0  0  0  0
 29 34  1  0  0  0  0
 30 31  1  0  0  0  0
 30 32  1  0  0  0  0
 30 33  1  0  0  0  0
 34 35  1  0  0  0  0
 34 36  1  0  0  0  0
 34 37  1  0  0  0  0
 40 41  2  0  0  0  0
 40 46  1  0  0  0  0
 41 42  1  0  0  0  0
 41 51  1  0  0  0  0
 42 43  1  0  0  0  0
 42 44  2  0  0  0  0
 44 45  1  0  0  0  0
 44 50  1  0  0  0  0
 45 46  2  0  0  0  0
 45 49  1  0  0  0  0
 46 47  1  0  0  0  0
 47 48  2  0  0  0  0
M  END
>  <MODEL>
       2

$$$$
best_conformers_57.pdb
 OpenBabel02212512003D

 59 63  0  0  1  0  0  0  0  0999 V2000
   -7.2490   -6.2530  -26.8170 C   0  0  0  0  0  0  0  0  0  0  0  0
   -7.6360   -4.8650  -26.9920 N   0  0  0  0  0  0  0  0  0  0  0  0
   -6.7810   -3.9050  -26.5510 C   0  0  0  0  0  0  0  0  0  0  0  0
   -5.6740   -4.1710  -26.0980 O   0  0  0  0  0  0  0  0  0  0  0  0
   -7.2830   -2.4610  -26.6410 C   0  0  0  0  0  0  0  0  0  0  0  0
   -8.1780   -2.0990  -25.5540 N   0  0  0  0  0  0  0  0  0  0  0  0
   -7.6880   -1.4950  -24.3330 C   0  0  0  0  0  0  0  0  0  0  0  0
   -8.6250   -1.7500  -23.1140 C   0  0  2  0  0  0  0  0  0  0  0  0
   -8.1240   -0.8230  -22.0010 C   0  0  0  0  0  0  0  0  0  0  0  0
   -8.2590    0.3850  -21.9220 O   0  0  0  0  0  0  0  0  0  0  0  0
   -7.4230   -1.5840  -21.1030 N   0  0  0  0  0  0  0  0  0  0  0  0
   -6.6750   -0.9990  -20.0640 C   0  0  0  0  0  0  0  0  0  0  0  0
   -7.0400   -1.2420  -18.7690 C   0  0  0  0  0  0  0  0  0  0  0  0
   -6.4110   -0.7170  -17.6920 N   0  0  0  0  0  0  0  0  0  0  0  0
   -5.3740    0.0530  -17.9310 C   0  0  0  0  0  0  0  0  0  0  0  0
   -4.8800    0.3550  -19.2320 C   0  0  0  0  0  0  0  0  0  0  0  0
   -3.7440    1.1810  -19.4270 C   0  0  0  0  0  0  0  0  0  0  0  0
   -3.2760    1.4390  -20.6850 C   0  0  0  0  0  0  0  0  0  0  0  0
   -3.9180    0.8820  -21.8150 C   0  0  0  0  0  0  0  0  0  0  0  0
   -5.0220    0.0850  -21.6570 C   0  0  0  0  0  0  0  0  0  0  0  0
   -5.5400   -0.1860  -20.3530 C   0  0  0  0  0  0  0  0  0  0  0  0
   -5.5060   -0.3320  -22.5380 H   0  0  0  0  0  0  0  0  0  0  0  0
   -3.5360    1.0930  -22.8110 H   0  0  0  0  0  0  0  0  0  0  0  0
   -2.4110    2.0810  -20.8280 H   0  0  0  0  0  0  0  0  0  0  0  0
   -3.2630    1.6050  -18.5490 H   0  0  0  0  0  0  0  0  0  0  0  0
   -4.8550    0.4750  -17.0680 H   0  0  0  0  0  0  0  0  0  0  0  0
   -7.9020   -1.8790  -18.5700 H   0  0  0  0  0  0  0  0  0  0  0  0
   -7.2920   -2.9680  -21.4950 C   0  0  0  0  0  0  0  0  0  0  0  0
   -8.4640   -3.1940  -22.4660 C   0  0  0  0  0  0  0  0  0  0  0  0
   -8.1550   -4.3350  -23.4380 C   0  0  0  0  0  0  0  0  0  0  0  0
   -8.9530   -4.4390  -24.1840 H   0  0  0  0  0  0  0  0  0  0  0  0
   -7.2010   -4.1970  -23.9560 H   0  0  0  0  0  0  0  0  0  0  0  0
   -8.0910   -5.2740  -22.8780 H   0  0  0  0  0  0  0  0  0  0  0  0
   -9.7180   -3.5970  -21.6760 C   0  0  0  0  0  0  0  0  0  0  0  0
   -9.4990   -4.4770  -21.0730 H   0  0  0  0  0  0  0  0  0  0  0  0
  -10.5360   -3.8320  -22.3650 H   0  0  0  0  0  0  0  0  0  0  0  0
  -10.0570   -2.8070  -21.0030 H   0  0  0  0  0  0  0  0  0  0  0  0
   -6.3310   -3.1570  -21.9970 H   0  0  0  0  0  0  0  0  0  0  0  0
   -7.3390   -3.6010  -20.6150 H   0  0  0  0  0  0  0  0  0  0  0  0
  -10.0360   -1.4150  -23.5160 C   0  0  0  0  0  0  0  0  0  0  0  0
  -10.9910   -0.9760  -22.5880 C   0  0  0  0  0  0  0  0  0  0  0  0
  -12.3240   -0.9280  -22.9700 C   0  0  0  0  0  0  0  0  0  0  0  0
  -13.5610   -0.7340  -21.7660 Cl  0  0  0  0  0  0  0  0  0  0  0  0
  -12.7030   -1.0500  -24.3080 C   0  0  0  0  0  0  0  0  0  0  0  0
  -11.7240   -1.3510  -25.2310 C   0  0  0  0  0  0  0  0  0  0  0  0
  -10.4340   -1.6550  -24.8260 C   0  0  0  0  0  0  0  0  0  0  0  0
   -9.4960   -2.3030  -25.7850 C   0  0  0  0  0  0  0  0  0  0  0  0
   -9.8620   -2.9890  -26.7350 O   0  0  0  0  0  0  0  0  0  0  0  0
  -11.9080   -1.3170  -26.2880 H   0  0  0  0  0  0  0  0  0  0  0  0
  -13.7420   -0.9170  -24.5900 H   0  0  0  0  0  0  0  0  0  0  0  0
  -10.6810   -0.6800  -21.5850 H   0  0  0  0  0  0  0  0  0  0  0  0
   -6.6850   -1.8860  -24.1250 H   0  0  0  0  0  0  0  0  0  0  0  0
   -7.6090   -0.4070  -24.4460 H   0  0  0  0  0  0  0  0  0  0  0  0
   -7.8500   -2.3360  -27.5690 H   0  0  0  0  0  0  0  0  0  0  0  0
   -6.4180   -1.7970  -26.6540 H   0  0  0  0  0  0  0  0  0  0  0  0
   -8.5780   -4.6160  -27.2690 H   0  0  0  0  0  0  0  0  0  0  0  0
   -6.3450   -6.4650  -27.3960 H   0  0  0  0  0  0  0  0  0  0  0  0
   -8.0530   -6.9150  -27.1470 H   0  0  0  0  0  0  0  0  0  0  0  0
   -7.0220   -6.4520  -25.7610 H   0  0  0  0  0  0  0  0  0  0  0  0
  1  2  1  0  0  0  0
  1 57  1  0  0  0  0
  1 58  1  0  0  0  0
  1 59  1  0  0  0  0
  2  3  1  0  0  0  0
  2 56  1  0  0  0  0
  3  4  2  0  0  0  0
  3  5  1  0  0  0  0
  5  6  1  0  0  0  0
  5 54  1  0  0  0  0
  5 55  1  0  0  0  0
  6  7  1  0  0  0  0
  6 47  1  0  0  0  0
  7  8  1  0  0  0  0
  7 52  1  0  0  0  0
  7 53  1  0  0  0  0
  8  9  1  1  0  0  0
  8 29  1  0  0  0  0
  8 40  1  0  0  0  0
  9 10  2  0  0  0  0
  9 11  1  0  0  0  0
 11 12  1  0  0  0  0
 11 28  1  0  0  0  0
 12 13  2  0  0  0  0
 12 21  1  0  0  0  0
 13 14  1  0  0  0  0
 13 27  1  0  0  0  0
 14 15  2  0  0  0  0
 15 16  1  0  0  0  0
 15 26  1  0  0  0  0
 16 17  2  0  0  0  0
 16 21  1  0  0  0  0
 17 18  1  0  0  0  0
 17 25  1  0  0  0  0
 18 19  2  0  0  0  0
 18 24  1  0  0  0  0
 19 20  1  0  0  0  0
 19 23  1  0  0  0  0
 20 21  2  0  0  0  0
 20 22  1  0  0  0  0
 28 29  1  0  0  0  0
 28 38  1  0  0  0  0
 28 39  1  0  0  0  0
 29 30  1  0  0  0  0
 29 34  1  0  0  0  0
 30 31  1  0  0  0  0
 30 32  1  0  0  0  0
 30 33  1  0  0  0  0
 34 35  1  0  0  0  0
 34 36  1  0  0  0  0
 34 37  1  0  0  0  0
 40 41  2  0  0  0  0
 40 46  1  0  0  0  0
 41 42  1  0  0  0  0
 41 51  1  0  0  0  0
 42 43  1  0  0  0  0
 42 44  2  0  0  0  0
 44 45  1  0  0  0  0
 44 50  1  0  0  0  0
 45 46  2  0  0  0  0
 45 49  1  0  0  0  0
 46 47  1  0  0  0  0
 47 48  2  0  0  0  0
M  END
>  <MODEL>
       3

$$$$
best_conformers_57.pdb
 OpenBabel02212512003D

 59 63  0  0  1  0  0  0  0  0999 V2000
   -7.2560   -6.2620  -26.8080 C   0  0  0  0  0  0  0  0  0  0  0  0
   -7.6410   -4.8750  -26.9860 N   0  0  0  0  0  0  0  0  0  0  0  0
   -6.7840   -3.9150  -26.5470 C   0  0  0  0  0  0  0  0  0  0  0  0
   -5.6770   -4.1810  -26.0950 O   0  0  0  0  0  0  0  0  0  0  0  0
   -7.2840   -2.4700  -26.6400 C   0  0  0  0  0  0  0  0  0  0  0  0
   -8.1790   -2.1050  -25.5540 N   0  0  0  0  0  0  0  0  0  0  0  0
   -7.6880   -1.5000  -24.3330 C   0  0  0  0  0  0  0  0  0  0  0  0
   -8.6260   -1.7510  -23.1150 C   0  0  2  0  0  0  0  0  0  0  0  0
   -8.1240   -0.8230  -22.0030 C   0  0  0  0  0  0  0  0  0  0  0  0
   -8.2570    0.3850  -21.9260 O   0  0  0  0  0  0  0  0  0  0  0  0
   -7.4230   -1.5830  -21.1030 N   0  0  0  0  0  0  0  0  0  0  0  0
   -6.6750   -0.9990  -20.0650 C   0  0  0  0  0  0  0  0  0  0  0  0
   -7.0400   -1.2410  -18.7690 C   0  0  0  0  0  0  0  0  0  0  0  0
   -6.4110   -0.7170  -17.6920 N   0  0  0  0  0  0  0  0  0  0  0  0
   -5.3740    0.0530  -17.9310 C   0  0  0  0  0  0  0  0  0  0  0  0
   -4.8800    0.3540  -19.2320 C   0  0  0  0  0  0  0  0  0  0  0  0
   -3.7430    1.1810  -19.4270 C   0  0  0  0  0  0  0  0  0  0  0  0
   -3.2750    1.4390  -20.6850 C   0  0  0  0  0  0  0  0  0  0  0  0
   -3.9170    0.8810  -21.8150 C   0  0  0  0  0  0  0  0  0  0  0  0
   -5.0210    0.0840  -21.6570 C   0  0  0  0  0  0  0  0  0  0  0  0
   -5.5400   -0.1860  -20.3540 C   0  0  0  0  0  0  0  0  0  0  0  0
   -5.5050   -0.3320  -22.5380 H   0  0  0  0  0  0  0  0  0  0  0  0
   -3.5360    1.0920  -22.8110 H   0  0  0  0  0  0  0  0  0  0  0  0
   -2.4100    2.0800  -20.8280 H   0  0  0  0  0  0  0  0  0  0  0  0
   -3.2630    1.6040  -18.5490 H   0  0  0  0  0  0  0  0  0  0  0  0
   -4.8550    0.4750  -17.0690 H   0  0  0  0  0  0  0  0  0  0  0  0
   -7.9020   -1.8790  -18.5700 H   0  0  0  0  0  0  0  0  0  0  0  0
   -7.2950   -2.9680  -21.4930 C   0  0  0  0  0  0  0  0  0  0  0  0
   -8.4680   -3.1940  -22.4640 C   0  0  0  0  0  0  0  0  0  0  0  0
   -9.7220   -3.5930  -21.6740 C   0  0  0  0  0  0  0  0  0  0  0  0
  -10.0590   -2.8020  -21.0010 H   0  0  0  0  0  0  0  0  0  0  0  0
   -9.5040   -4.4740  -21.0700 H   0  0  0  0  0  0  0  0  0  0  0  0
  -10.5410   -3.8280  -22.3620 H   0  0  0  0  0  0  0  0  0  0  0  0
   -8.1600   -4.3370  -23.4340 C   0  0  0  0  0  0  0  0  0  0  0  0
   -8.9580   -4.4410  -24.1800 H   0  0  0  0  0  0  0  0  0  0  0  0
   -8.0980   -5.2750  -22.8730 H   0  0  0  0  0  0  0  0  0  0  0  0
   -7.2050   -4.2020  -23.9520 H   0  0  0  0  0  0  0  0  0  0  0  0
   -7.3420   -3.6000  -20.6120 H   0  0  0  0  0  0  0  0  0  0  0  0
   -6.3340   -3.1600  -21.9960 H   0  0  0  0  0  0  0  0  0  0  0  0
  -10.0360   -1.4140  -23.5170 C   0  0  0  0  0  0  0  0  0  0  0  0
  -10.9910   -0.9740  -22.5900 C   0  0  0  0  0  0  0  0  0  0  0  0
  -12.3240   -0.9250  -22.9730 C   0  0  0  0  0  0  0  0  0  0  0  0
  -13.5610   -0.7300  -21.7690 Cl  0  0  0  0  0  0  0  0  0  0  0  0
  -12.7030   -1.0470  -24.3110 C   0  0  0  0  0  0  0  0  0  0  0  0
  -11.7240   -1.3500  -25.2330 C   0  0  0  0  0  0  0  0  0  0  0  0
  -10.4350   -1.6560  -24.8270 C   0  0  0  0  0  0  0  0  0  0  0  0
   -9.4980   -2.3070  -25.7850 C   0  0  0  0  0  0  0  0  0  0  0  0
   -9.8640   -2.9940  -26.7330 O   0  0  0  0  0  0  0  0  0  0  0  0
  -11.9070   -1.3170  -26.2900 H   0  0  0  0  0  0  0  0  0  0  0  0
  -13.7410   -0.9120  -24.5930 H   0  0  0  0  0  0  0  0  0  0  0  0
  -10.6820   -0.6760  -21.5870 H   0  0  0  0  0  0  0  0  0  0  0  0
   -7.6070   -0.4120  -24.4480 H   0  0  0  0  0  0  0  0  0  0  0  0
   -6.6870   -1.8920  -24.1240 H   0  0  0  0  0  0  0  0  0  0  0  0
   -7.8500   -2.3450  -27.5680 H   0  0  0  0  0  0  0  0  0  0  0  0
   -6.4180   -1.8080  -26.6540 H   0  0  0  0  0  0  0  0  0  0  0  0
   -8.5820   -4.6250  -27.2640 H   0  0  0  0  0  0  0  0  0  0  0  0
   -6.3530   -6.4770  -27.3870 H   0  0  0  0  0  0  0  0  0  0  0  0
   -7.0290   -6.4600  -25.7520 H   0  0  0  0  0  0  0  0  0  0  0  0
   -8.0610   -6.9240  -27.1360 H   0  0  0  0  0  0  0  0  0  0  0  0
  1  2  1  0  0  0  0
  1 57  1  0  0  0  0
  1 58  1  0  0  0  0
  1 59  1  0  0  0  0
  2  3  1  0  0  0  0
  2 56  1  0  0  0  0
  3  4  2  0  0  0  0
  3  5  1  0  0  0  0
  5  6  1  0  0  0  0
  5 54  1  0  0  0  0
  5 55  1  0  0  0  0
  6  7  1  0  0  0  0
  6 47  1  0  0  0  0
  7  8  1  0  0  0  0
  7 52  1  0  0  0  0
  7 53  1  0  0  0  0
  8  9  1  1  0  0  0
  8 29  1  0  0  0  0
  8 40  1  0  0  0  0
  9 10  2  0  0  0  0
  9 11  1  0  0  0  0
 11 12  1  0  0  0  0
 11 28  1  0  0  0  0
 12 13  2  0  0  0  0
 12 21  1  0  0  0  0
 13 14  1  0  0  0  0
 13 27  1  0  0  0  0
 14 15  2  0  0  0  0
 15 16  1  0  0  0  0
 15 26  1  0  0  0  0
 16 17  2  0  0  0  0
 16 21  1  0  0  0  0
 17 18  1  0  0  0  0
 17 25  1  0  0  0  0
 18 19  2  0  0  0  0
 18 24  1  0  0  0  0
 19 20  1  0  0  0  0
 19 23  1  0  0  0  0
 20 21  2  0  0  0  0
 20 22  1  0  0  0  0
 28 29  1  0  0  0  0
 28 38  1  0  0  0  0
 28 39  1  0  0  0  0
 29 30  1  0  0  0  0
 29 34  1  0  0  0  0
 30 31  1  0  0  0  0
 30 32  1  0  0  0  0
 30 33  1  0  0  0  0
 34 35  1  0  0  0  0
 34 36  1  0  0  0  0
 34 37  1  0  0  0  0
 40 41  2  0  0  0  0
 40 46  1  0  0  0  0
 41 42  1  0  0  0  0
 41 51  1  0  0  0  0
 42 43  1  0  0  0  0
 42 44  2  0  0  0  0
 44 45  1  0  0  0  0
 44 50  1  0  0  0  0
 45 46  2  0  0  0  0
 45 49  1  0  0  0  0
 46 47  1  0  0  0  0
 47 48  2  0  0  0  0
M  END
>  <MODEL>
       4

$$$$
best_conformers_57.pdb
 OpenBabel02212512003D

 59 63  0  0  1  0  0  0  0  0999 V2000
   -6.9140    3.3060  -23.3090 C   0  0  0  0  0  0  0  0  0  0  0  0
   -7.8570    2.6700  -24.2120 N   0  0  0  0  0  0  0  0  0  0  0  0
   -7.4660    1.5510  -24.8750 C   0  0  0  0  0  0  0  0  0  0  0  0
   -6.3140    1.1350  -24.8450 O   0  0  0  0  0  0  0  0  0  0  0  0
   -8.5690    0.8440  -25.6690 C   0  0  0  0  0  0  0  0  0  0  0  0
   -9.3210   -0.0780  -24.8350 N   0  0  0  0  0  0  0  0  0  0  0  0
   -8.7170   -1.3510  -24.4530 C   0  0  0  0  0  0  0  0  0  0  0  0
   -8.9590   -1.7370  -22.9710 C   0  0  2  0  0  0  0  0  0  0  0  0
   -8.1400   -0.8220  -22.0350 C   0  0  0  0  0  0  0  0  0  0  0  0
   -8.1210    0.3940  -22.0690 O   0  0  0  0  0  0  0  0  0  0  0  0
   -7.4050   -1.5940  -21.1600 N   0  0  0  0  0  0  0  0  0  0  0  0
   -6.6750   -1.0200  -20.0960 C   0  0  0  0  0  0  0  0  0  0  0  0
   -7.0310   -1.2590  -18.7930 C   0  0  0  0  0  0  0  0  0  0  0  0
   -6.4070   -0.7300  -17.7100 N   0  0  0  0  0  0  0  0  0  0  0  0
   -5.3740    0.0470  -17.9380 C   0  0  0  0  0  0  0  0  0  0  0  0
   -4.8780    0.3530  -19.2380 C   0  0  0  0  0  0  0  0  0  0  0  0
   -3.7470    1.1920  -19.4270 C   0  0  0  0  0  0  0  0  0  0  0  0
   -3.2790    1.4540  -20.6850 C   0  0  0  0  0  0  0  0  0  0  0  0
   -3.9200    0.8950  -21.8150 C   0  0  0  0  0  0  0  0  0  0  0  0
   -5.0230    0.0940  -21.6600 C   0  0  0  0  0  0  0  0  0  0  0  0
   -5.5360   -0.1950  -20.3620 C   0  0  0  0  0  0  0  0  0  0  0  0
   -5.5190   -0.3060  -22.5390 H   0  0  0  0  0  0  0  0  0  0  0  0
   -3.5460    1.1120  -22.8120 H   0  0  0  0  0  0  0  0  0  0  0  0
   -2.4130    2.0940  -20.8260 H   0  0  0  0  0  0  0  0  0  0  0  0
   -3.2680    1.6200  -18.5500 H   0  0  0  0  0  0  0  0  0  0  0  0
   -4.8690    0.4780  -17.0710 H   0  0  0  0  0  0  0  0  0  0  0  0
   -7.8910   -1.8900  -18.5750 H   0  0  0  0  0  0  0  0  0  0  0  0
   -7.8140   -2.9870  -21.1890 C   0  0  0  0  0  0  0  0  0  0  0  0
   -8.3850   -3.1800  -22.6180 C   0  0  0  0  0  0  0  0  0  0  0  0
   -7.2360   -3.6090  -23.5600 C   0  0  0  0  0  0  0  0  0  0  0  0
   -6.4010   -2.9010  -23.5880 H   0  0  0  0  0  0  0  0  0  0  0  0
   -6.8390   -4.5850  -23.2540 H   0  0  0  0  0  0  0  0  0  0  0  0
   -7.6150   -3.7310  -24.5790 H   0  0  0  0  0  0  0  0  0  0  0  0
   -9.4310   -4.2960  -22.7140 C   0  0  0  0  0  0  0  0  0  0  0  0
  -10.1600   -4.2790  -21.9080 H   0  0  0  0  0  0  0  0  0  0  0  0
   -8.9470   -5.2780  -22.7130 H   0  0  0  0  0  0  0  0  0  0  0  0
   -9.9890   -4.1820  -23.6480 H   0  0  0  0  0  0  0  0  0  0  0  0
   -6.9580   -3.6310  -20.9680 H   0  0  0  0  0  0  0  0  0  0  0  0
   -8.5900   -3.1710  -20.4360 H   0  0  0  0  0  0  0  0  0  0  0  0
  -10.4480   -1.5000  -22.6960 C   0  0  0  0  0  0  0  0  0  0  0  0
  -11.0780   -2.1300  -21.6320 C   0  0  0  0  0  0  0  0  0  0  0  0
  -12.4580   -2.0970  -21.5260 C   0  0  0  0  0  0  0  0  0  0  0  0
  -13.2100   -3.2280  -20.4320 Cl  0  0  0  0  0  0  0  0  0  0  0  0
  -13.2290   -1.2220  -22.2870 C   0  0  0  0  0  0  0  0  0  0  0  0
  -12.5720   -0.4170  -23.2000 C   0  0  0  0  0  0  0  0  0  0  0  0
  -11.1950   -0.5470  -23.3970 C   0  0  0  0  0  0  0  0  0  0  0  0
  -10.4790    0.3960  -24.3030 C   0  0  0  0  0  0  0  0  0  0  0  0
  -10.8870    1.5280  -24.5500 O   0  0  0  0  0  0  0  0  0  0  0  0
  -13.0950    0.3470  -23.7620 H   0  0  0  0  0  0  0  0  0  0  0  0
  -14.2960   -1.1330  -22.1150 H   0  0  0  0  0  0  0  0  0  0  0  0
  -10.5100   -2.6940  -20.9110 H   0  0  0  0  0  0  0  0  0  0  0  0
   -7.6470   -1.2600  -24.6190 H   0  0  0  0  0  0  0  0  0  0  0  0
   -9.0920   -2.1700  -25.0820 H   0  0  0  0  0  0  0  0  0  0  0  0
   -9.2950    1.5700  -26.0340 H   0  0  0  0  0  0  0  0  0  0  0  0
   -8.1290    0.3080  -26.5160 H   0  0  0  0  0  0  0  0  0  0  0  0
   -8.8440    2.7890  -24.0330 H   0  0  0  0  0  0  0  0  0  0  0  0
   -7.4140    4.1170  -22.7780 H   0  0  0  0  0  0  0  0  0  0  0  0
   -6.5230    2.5810  -22.5830 H   0  0  0  0  0  0  0  0  0  0  0  0
   -6.0780    3.7340  -23.8720 H   0  0  0  0  0  0  0  0  0  0  0  0
  1  2  1  0  0  0  0
  1 57  1  0  0  0  0
  1 58  1  0  0  0  0
  1 59  1  0  0  0  0
  2  3  1  0  0  0  0
  2 56  1  0  0  0  0
  3  4  2  0  0  0  0
  3  5  1  0  0  0  0
  5  6  1  0  0  0  0
  5 54  1  0  0  0  0
  5 55  1  0  0  0  0
  6  7  1  0  0  0  0
  6 47  1  0  0  0  0
  7  8  1  0  0  0  0
  7 52  1  0  0  0  0
  7 53  1  0  0  0  0
  8  9  1  1  0  0  0
  8 29  1  0  0  0  0
  8 40  1  0  0  0  0
  9 10  2  0  0  0  0
  9 11  1  0  0  0  0
 11 12  1  0  0  0  0
 11 28  1  0  0  0  0
 12 13  2  0  0  0  0
 12 21  1  0  0  0  0
 13 14  1  0  0  0  0
 13 27  1  0  0  0  0
 14 15  2  0  0  0  0
 15 16  1  0  0  0  0
 15 26  1  0  0  0  0
 16 17  2  0  0  0  0
 16 21  1  0  0  0  0
 17 18  1  0  0  0  0
 17 25  1  0  0  0  0
 18 19  2  0  0  0  0
 18 24  1  0  0  0  0
 19 20  1  0  0  0  0
 19 23  1  0  0  0  0
 20 21  2  0  0  0  0
 20 22  1  0  0  0  0
 28 29  1  0  0  0  0
 28 38  1  0  0  0  0
 28 39  1  0  0  0  0
 29 30  1  0  0  0  0
 29 34  1  0  0  0  0
 30 31  1  0  0  0  0
 30 32  1  0  0  0  0
 30 33  1  0  0  0  0
 34 35  1  0  0  0  0
 34 36  1  0  0  0  0
 34 37  1  0  0  0  0
 40 41  2  0  0  0  0
 40 46  1  0  0  0  0
 41 42  1  0  0  0  0
 41 51  1  0  0  0  0
 42 43  1  0  0  0  0
 42 44  2  0  0  0  0
 44 45  1  0  0  0  0
 44 50  1  0  0  0  0
 45 46  2  0  0  0  0
 45 49  1  0  0  0  0
 46 47  1  0  0  0  0
 47 48  2  0  0  0  0
M  END
>  <MODEL>
       5

$$$$
best_conformers_57.pdb
 OpenBabel02212512003D

 59 63  0  0  1  0  0  0  0  0999 V2000
   -5.7860   -6.0720  -26.2700 C   0  0  0  0  0  0  0  0  0  0  0  0
   -5.9510   -4.6300  -26.1640 N   0  0  0  0  0  0  0  0  0  0  0  0
   -7.0440   -4.0240  -26.7210 C   0  0  0  0  0  0  0  0  0  0  0  0
   -7.9050   -4.6650  -27.2980 O   0  0  0  0  0  0  0  0  0  0  0  0
   -7.1250   -2.4950  -26.5930 C   0  0  0  0  0  0  0  0  0  0  0  0
   -8.0860   -2.0530  -25.5840 N   0  0  0  0  0  0  0  0  0  0  0  0
   -7.6100   -1.5180  -24.3070 C   0  0  0  0  0  0  0  0  0  0  0  0
   -8.5900   -1.7680  -23.1170 C   0  0  2  0  0  0  0  0  0  0  0  0
   -8.1310   -0.8530  -21.9520 C   0  0  0  0  0  0  0  0  0  0  0  0
   -8.3520    0.3330  -21.8100 O   0  0  0  0  0  0  0  0  0  0  0  0
   -7.3740   -1.5990  -21.0690 N   0  0  0  0  0  0  0  0  0  0  0  0
   -6.6360   -1.0060  -20.0100 C   0  0  0  0  0  0  0  0  0  0  0  0
   -6.9950   -1.2380  -18.7080 C   0  0  0  0  0  0  0  0  0  0  0  0
   -6.3710   -0.6950  -17.6290 N   0  0  0  0  0  0  0  0  0  0  0  0
   -5.3420    0.0850  -17.8650 C   0  0  0  0  0  0  0  0  0  0  0  0
   -4.8420    0.3830  -19.1640 C   0  0  0  0  0  0  0  0  0  0  0  0
   -3.7070    1.2120  -19.3660 C   0  0  0  0  0  0  0  0  0  0  0  0
   -3.2430    1.4580  -20.6280 C   0  0  0  0  0  0  0  0  0  0  0  0
   -3.8870    0.8890  -21.7500 C   0  0  0  0  0  0  0  0  0  0  0  0
   -4.9870    0.0910  -21.5820 C   0  0  0  0  0  0  0  0  0  0  0  0
   -5.4990   -0.1780  -20.2800 C   0  0  0  0  0  0  0  0  0  0  0  0
   -5.4830   -0.3410  -22.4470 H   0  0  0  0  0  0  0  0  0  0  0  0
   -3.5130    1.0960  -22.7480 H   0  0  0  0  0  0  0  0  0  0  0  0
   -2.3810    2.0990  -20.7790 H   0  0  0  0  0  0  0  0  0  0  0  0
   -3.2320    1.6560  -18.4940 H   0  0  0  0  0  0  0  0  0  0  0  0
   -4.8430    0.5230  -17.0000 H   0  0  0  0  0  0  0  0  0  0  0  0
   -7.8480   -1.8820  -18.4890 H   0  0  0  0  0  0  0  0  0  0  0  0
   -7.1710   -2.9590  -21.5250 C   0  0  0  0  0  0  0  0  0  0  0  0
   -8.4050   -3.2000  -22.4280 C   0  0  0  0  0  0  0  0  0  0  0  0
   -9.6190   -3.5480  -21.5530 C   0  0  0  0  0  0  0  0  0  0  0  0
   -9.3780   -4.3930  -20.9060 H   0  0  0  0  0  0  0  0  0  0  0  0
   -9.9280   -2.7220  -20.9110 H   0  0  0  0  0  0  0  0  0  0  0  0
  -10.4680   -3.8370  -22.1800 H   0  0  0  0  0  0  0  0  0  0  0  0
   -8.1470   -4.3630  -23.3850 C   0  0  0  0  0  0  0  0  0  0  0  0
   -8.9490   -4.4390  -24.1270 H   0  0  0  0  0  0  0  0  0  0  0  0
   -7.1910   -4.2620  -23.9070 H   0  0  0  0  0  0  0  0  0  0  0  0
   -8.1100   -5.3000  -22.8160 H   0  0  0  0  0  0  0  0  0  0  0  0
   -6.2360   -3.0550  -22.1120 H   0  0  0  0  0  0  0  0  0  0  0  0
   -7.0970   -3.6440  -20.6770 H   0  0  0  0  0  0  0  0  0  0  0  0
   -9.9870   -1.3980  -23.5820 C   0  0  0  0  0  0  0  0  0  0  0  0
  -10.9820   -1.0560  -22.6560 C   0  0  0  0  0  0  0  0  0  0  0  0
  -12.2950   -0.9420  -23.0730 C   0  0  0  0  0  0  0  0  0  0  0  0
  -13.5570   -0.8320  -21.8950 Cl  0  0  0  0  0  0  0  0  0  0  0  0
  -12.6490   -0.9650  -24.4190 C   0  0  0  0  0  0  0  0  0  0  0  0
  -11.6450   -1.1400  -25.3470 C   0  0  0  0  0  0  0  0  0  0  0  0
  -10.3370   -1.4010  -24.9410 C   0  0  0  0  0  0  0  0  0  0  0  0
   -9.3570   -1.7660  -26.0170 C   0  0  0  0  0  0  0  0  0  0  0  0
   -9.6810   -1.8170  -27.1940 O   0  0  0  0  0  0  0  0  0  0  0  0
  -11.8420   -1.0930  -26.4100 H   0  0  0  0  0  0  0  0  0  0  0  0
  -13.6900   -0.8630  -24.7050 H   0  0  0  0  0  0  0  0  0  0  0  0
  -10.7410   -0.9100  -21.6070 H   0  0  0  0  0  0  0  0  0  0  0  0
   -6.6300   -1.9640  -24.0980 H   0  0  0  0  0  0  0  0  0  0  0  0
   -7.4740   -0.4270  -24.3720 H   0  0  0  0  0  0  0  0  0  0  0  0
   -7.4750   -2.1240  -27.5610 H   0  0  0  0  0  0  0  0  0  0  0  0
   -6.1460   -2.0520  -26.3820 H   0  0  0  0  0  0  0  0  0  0  0  0
   -5.2270   -4.0890  -25.7110 H   0  0  0  0  0  0  0  0  0  0  0  0
   -4.8550   -6.3620  -25.7760 H   0  0  0  0  0  0  0  0  0  0  0  0
   -5.7490   -6.3980  -27.3150 H   0  0  0  0  0  0  0  0  0  0  0  0
   -6.6210   -6.6060  -25.8020 H   0  0  0  0  0  0  0  0  0  0  0  0
  1  2  1  0  0  0  0
  1 57  1  0  0  0  0
  1 58  1  0  0  0  0
  1 59  1  0  0  0  0
  2  3  1  0  0  0  0
  2 56  1  0  0  0  0
  3  4  2  0  0  0  0
  3  5  1  0  0  0  0
  5  6  1  0  0  0  0
  5 54  1  0  0  0  0
  5 55  1  0  0  0  0
  6  7  1  0  0  0  0
  6 47  1  0  0  0  0
  7  8  1  0  0  0  0
  7 52  1  0  0  0  0
  7 53  1  0  0  0  0
  8  9  1  1  0  0  0
  8 29  1  0  0  0  0
  8 40  1  0  0  0  0
  9 10  2  0  0  0  0
  9 11  1  0  0  0  0
 11 12  1  0  0  0  0
 11 28  1  0  0  0  0
 12 13  2  0  0  0  0
 12 21  1  0  0  0  0
 13 14  1  0  0  0  0
 13 27  1  0  0  0  0
 14 15  2  0  0  0  0
 15 16  1  0  0  0  0
 15 26  1  0  0  0  0
 16 17  2  0  0  0  0
 16 21  1  0  0  0  0
 17 18  1  0  0  0  0
 17 25  1  0  0  0  0
 18 19  2  0  0  0  0
 18 24  1  0  0  0  0
 19 20  1  0  0  0  0
 19 23  1  0  0  0  0
 20 21  2  0  0  0  0
 20 22  1  0  0  0  0
 28 29  1  0  0  0  0
 28 38  1  0  0  0  0
 28 39  1  0  0  0  0
 29 30  1  0  0  0  0
 29 34  1  0  0  0  0
 30 31  1  0  0  0  0
 30 32  1  0  0  0  0
 30 33  1  0  0  0  0
 34 35  1  0  0  0  0
 34 36  1  0  0  0  0
 34 37  1  0  0  0  0
 40 41  2  0  0  0  0
 40 46  1  0  0  0  0
 41 42  1  0  0  0  0
 41 51  1  0  0  0  0
 42 43  1  0  0  0  0
 42 44  2  0  0  0  0
 44 45  1  0  0  0  0
 44 50  1  0  0  0  0
 45 46  2  0  0  0  0
 45 49  1  0  0  0  0
 46 47  1  0  0  0  0
 47 48  2  0  0  0  0
M  END
>  <MODEL>
       6

$$$$
best_conformers_57.pdb
 OpenBabel02212512003D

 59 63  0  0  1  0  0  0  0  0999 V2000
   -5.7630   -6.0480  -26.2800 C   0  0  0  0  0  0  0  0  0  0  0  0
   -5.9380   -4.6090  -26.1690 N   0  0  0  0  0  0  0  0  0  0  0  0
   -7.0290   -4.0050  -26.7260 C   0  0  0  0  0  0  0  0  0  0  0  0
   -7.8880   -4.6480  -27.3030 O   0  0  0  0  0  0  0  0  0  0  0  0
   -7.1190   -2.4780  -26.5930 C   0  0  0  0  0  0  0  0  0  0  0  0
   -8.0800   -2.0430  -25.5810 N   0  0  0  0  0  0  0  0  0  0  0  0
   -7.6060   -1.5100  -24.3020 C   0  0  0  0  0  0  0  0  0  0  0  0
   -8.5850   -1.7670  -23.1120 C   0  0  2  0  0  0  0  0  0  0  0  0
   -8.1300   -0.8530  -21.9440 C   0  0  0  0  0  0  0  0  0  0  0  0
   -8.3520    0.3300  -21.7970 O   0  0  0  0  0  0  0  0  0  0  0  0
   -7.3700   -1.6020  -21.0650 N   0  0  0  0  0  0  0  0  0  0  0  0
   -6.6330   -1.0080  -20.0060 C   0  0  0  0  0  0  0  0  0  0  0  0
   -6.9920   -1.2390  -18.7020 C   0  0  0  0  0  0  0  0  0  0  0  0
   -6.3690   -0.6940  -17.6240 N   0  0  0  0  0  0  0  0  0  0  0  0
   -5.3400    0.0860  -17.8620 C   0  0  0  0  0  0  0  0  0  0  0  0
   -4.8410    0.3840  -19.1620 C   0  0  0  0  0  0  0  0  0  0  0  0
   -3.7060    1.2130  -19.3640 C   0  0  0  0  0  0  0  0  0  0  0  0
   -3.2430    1.4590  -20.6270 C   0  0  0  0  0  0  0  0  0  0  0  0
   -3.8860    0.8900  -21.7480 C   0  0  0  0  0  0  0  0  0  0  0  0
   -4.9870    0.0910  -21.5790 C   0  0  0  0  0  0  0  0  0  0  0  0
   -5.4970   -0.1790  -20.2770 C   0  0  0  0  0  0  0  0  0  0  0  0
   -5.4820   -0.3410  -22.4440 H   0  0  0  0  0  0  0  0  0  0  0  0
   -3.5140    1.0960  -22.7460 H   0  0  0  0  0  0  0  0  0  0  0  0
   -2.3810    2.1000  -20.7780 H   0  0  0  0  0  0  0  0  0  0  0  0
   -3.2310    1.6570  -18.4930 H   0  0  0  0  0  0  0  0  0  0  0  0
   -4.8430    0.5250  -16.9980 H   0  0  0  0  0  0  0  0  0  0  0  0
   -7.8450   -1.8820  -18.4860 H   0  0  0  0  0  0  0  0  0  0  0  0
   -7.1610   -2.9590  -21.5270 C   0  0  0  0  0  0  0  0  0  0  0  0
   -8.3950   -3.2010  -22.4280 C   0  0  0  0  0  0  0  0  0  0  0  0
   -8.1370   -4.3590  -23.3880 C   0  0  0  0  0  0  0  0  0  0  0  0
   -8.0970   -5.2980  -22.8220 H   0  0  0  0  0  0  0  0  0  0  0  0
   -8.9390   -4.4340  -24.1290 H   0  0  0  0  0  0  0  0  0  0  0  0
   -7.1820   -4.2550  -23.9110 H   0  0  0  0  0  0  0  0  0  0  0  0
   -9.6080   -3.5530  -21.5530 C   0  0  0  0  0  0  0  0  0  0  0  0
  -10.4550   -3.8450  -22.1800 H   0  0  0  0  0  0  0  0  0  0  0  0
   -9.3660   -4.3980  -20.9060 H   0  0  0  0  0  0  0  0  0  0  0  0
   -9.9200   -2.7290  -20.9110 H   0  0  0  0  0  0  0  0  0  0  0  0
   -6.2260   -3.0480  -22.1150 H   0  0  0  0  0  0  0  0  0  0  0  0
   -7.0810   -3.6480  -20.6810 H   0  0  0  0  0  0  0  0  0  0  0  0
   -9.9830   -1.3980  -23.5780 C   0  0  0  0  0  0  0  0  0  0  0  0
  -10.9800   -1.0620  -22.6530 C   0  0  0  0  0  0  0  0  0  0  0  0
  -12.2940   -0.9530  -23.0670 C   0  0  0  0  0  0  0  0  0  0  0  0
  -13.5550   -0.8530  -21.8860 Cl  0  0  0  0  0  0  0  0  0  0  0  0
  -12.6480   -0.9720  -24.4120 C   0  0  0  0  0  0  0  0  0  0  0  0
  -11.6440   -1.1380  -25.3410 C   0  0  0  0  0  0  0  0  0  0  0  0
  -10.3340   -1.3970  -24.9360 C   0  0  0  0  0  0  0  0  0  0  0  0
   -9.3550   -1.7610  -26.0130 C   0  0  0  0  0  0  0  0  0  0  0  0
   -9.6790   -1.8120  -27.1880 O   0  0  0  0  0  0  0  0  0  0  0  0
  -11.8400   -1.0860  -26.4070 H   0  0  0  0  0  0  0  0  0  0  0  0
  -13.6890   -0.8740  -24.7020 H   0  0  0  0  0  0  0  0  0  0  0  0
  -10.7430   -0.9160  -21.6050 H   0  0  0  0  0  0  0  0  0  0  0  0
   -7.4740   -0.4180  -24.3670 H   0  0  0  0  0  0  0  0  0  0  0  0
   -6.6240   -1.9540  -24.0920 H   0  0  0  0  0  0  0  0  0  0  0  0
   -7.4770   -2.1070  -27.5580 H   0  0  0  0  0  0  0  0  0  0  0  0
   -6.1430   -2.0310  -26.3850 H   0  0  0  0  0  0  0  0  0  0  0  0
   -5.2180   -4.0640  -25.7170 H   0  0  0  0  0  0  0  0  0  0  0  0
   -5.7240   -6.3680  -27.3260 H   0  0  0  0  0  0  0  0  0  0  0  0
   -4.8320   -6.3350  -25.7890 H   0  0  0  0  0  0  0  0  0  0  0  0
   -6.5940   -6.5870  -25.8130 H   0  0  0  0  0  0  0  0  0  0  0  0
  1  2  1  0  0  0  0
  1 57  1  0  0  0  0
  1 58  1  0  0  0  0
  1 59  1  0  0  0  0
  2  3  1  0  0  0  0
  2 56  1  0  0  0  0
  3  4  2  0  0  0  0
  3  5  1  0  0  0  0
  5  6  1  0  0  0  0
  5 54  1  0  0  0  0
  5 55  1  0  0  0  0
  6  7  1  0  0  0  0
  6 47  1  0  0  0  0
  7  8  1  0  0  0  0
  7 52  1  0  0  0  0
  7 53  1  0  0  0  0
  8  9  1  1  0  0  0
  8 29  1  0  0  0  0
  8 40  1  0  0  0  0
  9 10  2  0  0  0  0
  9 11  1  0  0  0  0
 11 12  1  0  0  0  0
 11 28  1  0  0  0  0
 12 13  2  0  0  0  0
 12 21  1  0  0  0  0
 13 14  1  0  0  0  0
 13 27  1  0  0  0  0
 14 15  2  0  0  0  0
 15 16  1  0  0  0  0
 15 26  1  0  0  0  0
 16 17  2  0  0  0  0
 16 21  1  0  0  0  0
 17 18  1  0  0  0  0
 17 25  1  0  0  0  0
 18 19  2  0  0  0  0
 18 24  1  0  0  0  0
 19 20  1  0  0  0  0
 19 23  1  0  0  0  0
 20 21  2  0  0  0  0
 20 22  1  0  0  0  0
 28 29  1  0  0  0  0
 28 38  1  0  0  0  0
 28 39  1  0  0  0  0
 29 30  1  0  0  0  0
 29 34  1  0  0  0  0
 30 31  1  0  0  0  0
 30 32  1  0  0  0  0
 30 33  1  0  0  0  0
 34 35  1  0  0  0  0
 34 36  1  0  0  0  0
 34 37  1  0  0  0  0
 40 41  2  0  0  0  0
 40 46  1  0  0  0  0
 41 42  1  0  0  0  0
 41 51  1  0  0  0  0
 42 43  1  0  0  0  0
 42 44  2  0  0  0  0
 44 45  1  0  0  0  0
 44 50  1  0  0  0  0
 45 46  2  0  0  0  0
 45 49  1  0  0  0  0
 46 47  1  0  0  0  0
 47 48  2  0  0  0  0
M  END
>  <MODEL>
       7

$$$$
best_conformers_57.pdb
 OpenBabel02212512003D

 59 63  0  0  1  0  0  0  0  0999 V2000
   -7.3970    3.0770  -21.9140 C   0  0  0  0  0  0  0  0  0  0  0  0
   -8.2690    2.6050  -22.9860 N   0  0  0  0  0  0  0  0  0  0  0  0
   -7.6920    1.8780  -23.9890 C   0  0  0  0  0  0  0  0  0  0  0  0
   -6.4820    1.7490  -24.0850 O   0  0  0  0  0  0  0  0  0  0  0  0
   -8.6490    1.2220  -24.9930 C   0  0  0  0  0  0  0  0  0  0  0  0
   -9.3110    0.0720  -24.4090 N   0  0  0  0  0  0  0  0  0  0  0  0
   -8.5170   -1.0990  -24.0900 C   0  0  0  0  0  0  0  0  0  0  0  0
   -9.0440   -1.7840  -22.8010 C   0  0  2  0  0  0  0  0  0  0  0  0
   -8.5510   -0.9850  -21.5760 C   0  0  0  0  0  0  0  0  0  0  0  0
   -9.0230    0.0370  -21.1070 O   0  0  0  0  0  0  0  0  0  0  0  0
   -7.4230   -1.5980  -21.0980 N   0  0  0  0  0  0  0  0  0  0  0  0
   -6.6760   -1.0120  -20.0530 C   0  0  0  0  0  0  0  0  0  0  0  0
   -7.0620   -1.2180  -18.7550 C   0  0  0  0  0  0  0  0  0  0  0  0
   -6.4180   -0.7010  -17.6810 N   0  0  0  0  0  0  0  0  0  0  0  0
   -5.3690    0.0520  -17.9190 C   0  0  0  0  0  0  0  0  0  0  0  0
   -4.8750    0.3540  -19.2220 C   0  0  0  0  0  0  0  0  0  0  0  0
   -3.7490    1.1940  -19.4340 C   0  0  0  0  0  0  0  0  0  0  0  0
   -3.3190    1.4770  -20.7010 C   0  0  0  0  0  0  0  0  0  0  0  0
   -3.9940    0.9450  -21.8240 C   0  0  0  0  0  0  0  0  0  0  0  0
   -5.0860    0.1280  -21.6480 C   0  0  0  0  0  0  0  0  0  0  0  0
   -5.5480   -0.1910  -20.3390 C   0  0  0  0  0  0  0  0  0  0  0  0
   -5.6180   -0.2450  -22.5190 H   0  0  0  0  0  0  0  0  0  0  0  0
   -3.6610    1.1900  -22.8290 H   0  0  0  0  0  0  0  0  0  0  0  0
   -2.4590    2.1230  -20.8540 H   0  0  0  0  0  0  0  0  0  0  0  0
   -3.2490    1.6120  -18.5640 H   0  0  0  0  0  0  0  0  0  0  0  0
   -4.8430    0.4650  -17.0570 H   0  0  0  0  0  0  0  0  0  0  0  0
   -7.9350   -1.8320  -18.5510 H   0  0  0  0  0  0  0  0  0  0  0  0
   -7.0190   -2.7770  -21.8300 C   0  0  0  0  0  0  0  0  0  0  0  0
   -8.2770   -3.1660  -22.6500 C   0  0  0  0  0  0  0  0  0  0  0  0
   -7.8570   -3.8500  -23.9660 C   0  0  0  0  0  0  0  0  0  0  0  0
   -8.7300   -4.0500  -24.6000 H   0  0  0  0  0  0  0  0  0  0  0  0
   -7.1310   -3.2720  -24.5480 H   0  0  0  0  0  0  0  0  0  0  0  0
   -7.3860   -4.8130  -23.7400 H   0  0  0  0  0  0  0  0  0  0  0  0
   -9.0710   -4.2170  -21.8880 C   0  0  0  0  0  0  0  0  0  0  0  0
  -10.0050   -4.4350  -22.4130 H   0  0  0  0  0  0  0  0  0  0  0  0
   -8.4710   -5.1250  -21.8430 H   0  0  0  0  0  0  0  0  0  0  0  0
   -9.2880   -3.9170  -20.8630 H   0  0  0  0  0  0  0  0  0  0  0  0
   -6.1520   -2.5760  -22.4810 H   0  0  0  0  0  0  0  0  0  0  0  0
   -6.7210   -3.5670  -21.1340 H   0  0  0  0  0  0  0  0  0  0  0  0
  -10.5690   -1.7460  -22.8130 C   0  0  0  0  0  0  0  0  0  0  0  0
  -11.3080   -2.2640  -21.7420 C   0  0  0  0  0  0  0  0  0  0  0  0
  -12.6890   -2.3070  -21.7870 C   0  0  0  0  0  0  0  0  0  0  0  0
  -13.5560   -3.0490  -20.4750 Cl  0  0  0  0  0  0  0  0  0  0  0  0
  -13.4000   -1.7680  -22.8570 C   0  0  0  0  0  0  0  0  0  0  0  0
  -12.6860   -1.1400  -23.8560 C   0  0  0  0  0  0  0  0  0  0  0  0
  -11.2960   -1.0970  -23.8150 C   0  0  0  0  0  0  0  0  0  0  0  0
  -10.5960   -0.2340  -24.8040 C   0  0  0  0  0  0  0  0  0  0  0  0
  -11.1090    0.1710  -25.8300 O   0  0  0  0  0  0  0  0  0  0  0  0
  -13.1850   -0.6480  -24.6790 H   0  0  0  0  0  0  0  0  0  0  0  0
  -14.4810   -1.8250  -22.8650 H   0  0  0  0  0  0  0  0  0  0  0  0
  -10.7880   -2.6680  -20.8920 H   0  0  0  0  0  0  0  0  0  0  0  0
   -8.6020   -1.8190  -24.9180 H   0  0  0  0  0  0  0  0  0  0  0  0
   -7.4680   -0.8130  -23.9690 H   0  0  0  0  0  0  0  0  0  0  0  0
   -9.4330    1.9240  -25.2960 H   0  0  0  0  0  0  0  0  0  0  0  0
   -8.0540    0.9420  -25.8710 H   0  0  0  0  0  0  0  0  0  0  0  0
   -9.2410    2.4400  -22.7520 H   0  0  0  0  0  0  0  0  0  0  0  0
   -7.9790    3.6020  -21.1590 H   0  0  0  0  0  0  0  0  0  0  0  0
   -6.6580    3.7800  -22.3110 H   0  0  0  0  0  0  0  0  0  0  0  0
   -6.8650    2.2390  -21.4410 H   0  0  0  0  0  0  0  0  0  0  0  0
  1  2  1  0  0  0  0
  1 57  1  0  0  0  0
  1 58  1  0  0  0  0
  1 59  1  0  0  0  0
  2  3  1  0  0  0  0
  2 56  1  0  0  0  0
  3  4  2  0  0  0  0
  3  5  1  0  0  0  0
  5  6  1  0  0  0  0
  5 54  1  0  0  0  0
  5 55  1  0  0  0  0
  6  7  1  0  0  0  0
  6 47  1  0  0  0  0
  7  8  1  0  0  0  0
  7 52  1  0  0  0  0
  7 53  1  0  0  0  0
  8  9  1  1  0  0  0
  8 29  1  0  0  0  0
  8 40  1  0  0  0  0
  9 10  2  0  0  0  0
  9 11  1  0  0  0  0
 11 12  1  0  0  0  0
 11 28  1  0  0  0  0
 12 13  2  0  0  0  0
 12 21  1  0  0  0  0
 13 14  1  0  0  0  0
 13 27  1  0  0  0  0
 14 15  2  0  0  0  0
 15 16  1  0  0  0  0
 15 26  1  0  0  0  0
 16 17  2  0  0  0  0
 16 21  1  0  0  0  0
 17 18  1  0  0  0  0
 17 25  1  0  0  0  0
 18 19  2  0  0  0  0
 18 24  1  0  0  0  0
 19 20  1  0  0  0  0
 19 23  1  0  0  0  0
 20 21  2  0  0  0  0
 20 22  1  0  0  0  0
 28 29  1  0  0  0  0
 28 38  1  0  0  0  0
 28 39  1  0  0  0  0
 29 30  1  0  0  0  0
 29 34  1  0  0  0  0
 30 31  1  0  0  0  0
 30 32  1  0  0  0  0
 30 33  1  0  0  0  0
 34 35  1  0  0  0  0
 34 36  1  0  0  0  0
 34 37  1  0  0  0  0
 40 41  2  0  0  0  0
 40 46  1  0  0  0  0
 41 42  1  0  0  0  0
 41 51  1  0  0  0  0
 42 43  1  0  0  0  0
 42 44  2  0  0  0  0
 44 45  1  0  0  0  0
 44 50  1  0  0  0  0
 45 46  2  0  0  0  0
 45 49  1  0  0  0  0
 46 47  1  0  0  0  0
 47 48  2  0  0  0  0
M  END
>  <MODEL>
       8

$$$$
best_conformers_57.pdb
 OpenBabel02212512003D

 59 63  0  0  1  0  0  0  0  0999 V2000
   -7.3960    3.0780  -21.9160 C   0  0  0  0  0  0  0  0  0  0  0  0
   -8.2730    2.6050  -22.9840 N   0  0  0  0  0  0  0  0  0  0  0  0
   -7.6990    1.8760  -23.9880 C   0  0  0  0  0  0  0  0  0  0  0  0
   -6.4890    1.7440  -24.0860 O   0  0  0  0  0  0  0  0  0  0  0  0
   -8.6600    1.2200  -24.9890 C   0  0  0  0  0  0  0  0  0  0  0  0
   -9.3220    0.0720  -24.4010 N   0  0  0  0  0  0  0  0  0  0  0  0
   -8.5280   -1.1010  -24.0840 C   0  0  0  0  0  0  0  0  0  0  0  0
   -9.0520   -1.7820  -22.7940 C   0  0  2  0  0  0  0  0  0  0  0  0
   -8.5550   -0.9830  -21.5710 C   0  0  0  0  0  0  0  0  0  0  0  0
   -9.0260    0.0390  -21.1000 O   0  0  0  0  0  0  0  0  0  0  0  0
   -7.4240   -1.5950  -21.0970 N   0  0  0  0  0  0  0  0  0  0  0  0
   -6.6770   -1.0110  -20.0520 C   0  0  0  0  0  0  0  0  0  0  0  0
   -7.0620   -1.2170  -18.7540 C   0  0  0  0  0  0  0  0  0  0  0  0
   -6.4180   -0.7010  -17.6810 N   0  0  0  0  0  0  0  0  0  0  0  0
   -5.3690    0.0520  -17.9190 C   0  0  0  0  0  0  0  0  0  0  0  0
   -4.8750    0.3540  -19.2220 C   0  0  0  0  0  0  0  0  0  0  0  0
   -3.7490    1.1940  -19.4340 C   0  0  0  0  0  0  0  0  0  0  0  0
   -3.3190    1.4780  -20.7010 C   0  0  0  0  0  0  0  0  0  0  0  0
   -3.9950    0.9460  -21.8250 C   0  0  0  0  0  0  0  0  0  0  0  0
   -5.0870    0.1280  -21.6480 C   0  0  0  0  0  0  0  0  0  0  0  0
   -5.5480   -0.1910  -20.3390 C   0  0  0  0  0  0  0  0  0  0  0  0
   -5.6190   -0.2450  -22.5190 H   0  0  0  0  0  0  0  0  0  0  0  0
   -3.6620    1.1900  -22.8290 H   0  0  0  0  0  0  0  0  0  0  0  0
   -2.4590    2.1230  -20.8540 H   0  0  0  0  0  0  0  0  0  0  0  0
   -3.2490    1.6120  -18.5640 H   0  0  0  0  0  0  0  0  0  0  0  0
   -4.8430    0.4650  -17.0570 H   0  0  0  0  0  0  0  0  0  0  0  0
   -7.9360   -1.8310  -18.5500 H   0  0  0  0  0  0  0  0  0  0  0  0
   -7.0230   -2.7740  -21.8310 C   0  0  0  0  0  0  0  0  0  0  0  0
   -8.2850   -3.1640  -22.6440 C   0  0  0  0  0  0  0  0  0  0  0  0
   -9.0760   -4.2120  -21.8760 C   0  0  0  0  0  0  0  0  0  0  0  0
  -10.0110   -4.4320  -22.3980 H   0  0  0  0  0  0  0  0  0  0  0  0
   -8.4750   -5.1200  -21.8280 H   0  0  0  0  0  0  0  0  0  0  0  0
   -9.2910   -3.9080  -20.8520 H   0  0  0  0  0  0  0  0  0  0  0  0
   -7.8720   -3.8520  -23.9610 C   0  0  0  0  0  0  0  0  0  0  0  0
   -7.4020   -4.8150  -23.7350 H   0  0  0  0  0  0  0  0  0  0  0  0
   -7.1480   -3.2760  -24.5480 H   0  0  0  0  0  0  0  0  0  0  0  0
   -8.7490   -4.0510  -24.5900 H   0  0  0  0  0  0  0  0  0  0  0  0
   -6.1590   -2.5740  -22.4850 H   0  0  0  0  0  0  0  0  0  0  0  0
   -6.7220   -3.5640  -21.1360 H   0  0  0  0  0  0  0  0  0  0  0  0
  -10.5770   -1.7440  -22.8010 C   0  0  0  0  0  0  0  0  0  0  0  0
  -11.3150   -2.2620  -21.7300 C   0  0  0  0  0  0  0  0  0  0  0  0
  -12.6960   -2.3040  -21.7720 C   0  0  0  0  0  0  0  0  0  0  0  0
  -13.5600   -3.0440  -20.4590 Cl  0  0  0  0  0  0  0  0  0  0  0  0
  -13.4080   -1.7620  -22.8390 C   0  0  0  0  0  0  0  0  0  0  0  0
  -12.6960   -1.1350  -23.8390 C   0  0  0  0  0  0  0  0  0  0  0  0
  -11.3060   -1.0940  -23.8010 C   0  0  0  0  0  0  0  0  0  0  0  0
  -10.6080   -0.2330  -24.7940 C   0  0  0  0  0  0  0  0  0  0  0  0
  -11.1220    0.1700  -25.8190 O   0  0  0  0  0  0  0  0  0  0  0  0
  -13.1970   -0.6420  -24.6610 H   0  0  0  0  0  0  0  0  0  0  0  0
  -14.4900   -1.8170  -22.8420 H   0  0  0  0  0  0  0  0  0  0  0  0
  -10.7910   -2.6680  -20.8830 H   0  0  0  0  0  0  0  0  0  0  0  0
   -7.4780   -0.8140  -23.9680 H   0  0  0  0  0  0  0  0  0  0  0  0
   -8.6170   -1.8210  -24.9120 H   0  0  0  0  0  0  0  0  0  0  0  0
   -8.0670    0.9390  -25.8680 H   0  0  0  0  0  0  0  0  0  0  0  0
   -9.4440    1.9230  -25.2910 H   0  0  0  0  0  0  0  0  0  0  0  0
   -9.2440    2.4420  -22.7470 H   0  0  0  0  0  0  0  0  0  0  0  0
   -6.8650    2.2400  -21.4420 H   0  0  0  0  0  0  0  0  0  0  0  0
   -6.6570    3.7800  -22.3150 H   0  0  0  0  0  0  0  0  0  0  0  0
   -7.9760    3.6060  -21.1600 H   0  0  0  0  0  0  0  0  0  0  0  0
  1  2  1  0  0  0  0
  1 57  1  0  0  0  0
  1 58  1  0  0  0  0
  1 59  1  0  0  0  0
  2  3  1  0  0  0  0
  2 56  1  0  0  0  0
  3  4  2  0  0  0  0
  3  5  1  0  0  0  0
  5  6  1  0  0  0  0
  5 54  1  0  0  0  0
  5 55  1  0  0  0  0
  6  7  1  0  0  0  0
  6 47  1  0  0  0  0
  7  8  1  0  0  0  0
  7 52  1  0  0  0  0
  7 53  1  0  0  0  0
  8  9  1  1  0  0  0
  8 29  1  0  0  0  0
  8 40  1  0  0  0  0
  9 10  2  0  0  0  0
  9 11  1  0  0  0  0
 11 12  1  0  0  0  0
 11 28  1  0  0  0  0
 12 13  2  0  0  0  0
 12 21  1  0  0  0  0
 13 14  1  0  0  0  0
 13 27  1  0  0  0  0
 14 15  2  0  0  0  0
 15 16  1  0  0  0  0
 15 26  1  0  0  0  0
 16 17  2  0  0  0  0
 16 21  1  0  0  0  0
 17 18  1  0  0  0  0
 17 25  1  0  0  0  0
 18 19  2  0  0  0  0
 18 24  1  0  0  0  0
 19 20  1  0  0  0  0
 19 23  1  0  0  0  0
 20 21  2  0  0  0  0
 20 22  1  0  0  0  0
 28 29  1  0  0  0  0
 28 38  1  0  0  0  0
 28 39  1  0  0  0  0
 29 30  1  0  0  0  0
 29 34  1  0  0  0  0
 30 31  1  0  0  0  0
 30 32  1  0  0  0  0
 30 33  1  0  0  0  0
 34 35  1  0  0  0  0
 34 36  1  0  0  0  0
 34 37  1  0  0  0  0
 40 41  2  0  0  0  0
 40 46  1  0  0  0  0
 41 42  1  0  0  0  0
 41 51  1  0  0  0  0
 42 43  1  0  0  0  0
 42 44  2  0  0  0  0
 44 45  1  0  0  0  0
 44 50  1  0  0  0  0
 45 46  2  0  0  0  0
 45 49  1  0  0  0  0
 46 47  1  0  0  0  0
 47 48  2  0  0  0  0
M  END
>  <MODEL>
       9

$$$$
