best_conformers_58.pdb
 OpenBabel02212512003D

 42 45  0  0  1  0  0  0  0  0999 V2000
   -6.6350   -2.4700  -24.9460 C   0  0  0  0  0  0  0  0  0  0  0  0
   -7.9000   -2.5410  -24.2440 N   0  0  0  0  0  0  0  0  0  0  0  0
   -8.2640   -3.7340  -23.5060 C   0  0  0  0  0  0  0  0  0  0  0  0
   -8.8700   -3.3120  -22.1660 C   0  0  1  0  0  0  0  0  0  0  0  0
   -7.6850   -2.8040  -21.3100 C   0  0  0  0  0  0  0  0  0  0  0  0
   -6.8930   -3.6070  -20.8480 O   0  0  0  0  0  0  0  0  0  0  0  0
   -7.5400   -1.4440  -21.1340 N   0  0  0  0  0  0  0  0  0  0  0  0
   -6.7320   -0.9390  -20.0920 C   0  0  0  0  0  0  0  0  0  0  0  0
   -7.0600   -1.2140  -18.7910 C   0  0  0  0  0  0  0  0  0  0  0  0
   -6.4040   -0.7190  -17.7130 N   0  0  0  0  0  0  0  0  0  0  0  0
   -5.3660    0.0490  -17.9450 C   0  0  0  0  0  0  0  0  0  0  0  0
   -4.8780    0.3630  -19.2440 C   0  0  0  0  0  0  0  0  0  0  0  0
   -3.7360    1.1850  -19.4380 C   0  0  0  0  0  0  0  0  0  0  0  0
   -3.2840    1.4500  -20.7020 C   0  0  0  0  0  0  0  0  0  0  0  0
   -3.9420    0.8930  -21.8250 C   0  0  0  0  0  0  0  0  0  0  0  0
   -5.0510    0.0990  -21.6600 C   0  0  0  0  0  0  0  0  0  0  0  0
   -5.5670   -0.1570  -20.3620 C   0  0  0  0  0  0  0  0  0  0  0  0
   -5.5390   -0.3380  -22.5260 H   0  0  0  0  0  0  0  0  0  0  0  0
   -3.5770    1.1160  -22.8240 H   0  0  0  0  0  0  0  0  0  0  0  0
   -2.4220    2.0960  -20.8510 H   0  0  0  0  0  0  0  0  0  0  0  0
   -3.2490    1.6070  -18.5610 H   0  0  0  0  0  0  0  0  0  0  0  0
   -4.8580    0.4600  -17.0720 H   0  0  0  0  0  0  0  0  0  0  0  0
   -7.9010   -1.8670  -18.5700 H   0  0  0  0  0  0  0  0  0  0  0  0
   -7.7440   -0.8290  -21.9140 H   0  0  0  0  0  0  0  0  0  0  0  0
  -10.0170   -2.3730  -22.4250 C   0  0  0  0  0  0  0  0  0  0  0  0
  -11.2000   -2.4370  -21.6780 C   0  0  0  0  0  0  0  0  0  0  0  0
  -12.2180   -1.5210  -21.9150 C   0  0  0  0  0  0  0  0  0  0  0  0
  -13.7390   -1.6860  -21.0690 Cl  0  0  0  0  0  0  0  0  0  0  0  0
  -12.0760   -0.5030  -22.8610 C   0  0  0  0  0  0  0  0  0  0  0  0
  -10.9540   -0.5110  -23.6810 C   0  0  0  0  0  0  0  0  0  0  0  0
   -9.9470   -1.4630  -23.4810 C   0  0  0  0  0  0  0  0  0  0  0  0
   -8.7820   -1.5110  -24.4290 C   0  0  0  0  0  0  0  0  0  0  0  0
   -8.6140   -0.6670  -25.3000 O   0  0  0  0  0  0  0  0  0  0  0  0
  -10.8410    0.2000  -24.4950 H   0  0  0  0  0  0  0  0  0  0  0  0
  -12.8460    0.2650  -22.9490 H   0  0  0  0  0  0  0  0  0  0  0  0
  -11.3440   -3.1890  -20.9040 H   0  0  0  0  0  0  0  0  0  0  0  0
   -9.2400   -4.1850  -21.6200 H   0  0  0  0  0  0  0  0  0  0  0  0
   -8.9540   -4.3720  -24.0760 H   0  0  0  0  0  0  0  0  0  0  0  0
   -7.3550   -4.3010  -23.2890 H   0  0  0  0  0  0  0  0  0  0  0  0
   -6.0590   -3.3660  -24.7010 H   0  0  0  0  0  0  0  0  0  0  0  0
   -6.7880   -2.4050  -26.0260 H   0  0  0  0  0  0  0  0  0  0  0  0
   -6.0710   -1.5850  -24.6310 H   0  0  0  0  0  0  0  0  0  0  0  0
  1  2  1  0  0  0  0
  1 40  1  0  0  0  0
  1 41  1  0  0  0  0
  1 42  1  0  0  0  0
  2  3  1  0  0  0  0
  2 32  1  0  0  0  0
  3  4  1  0  0  0  0
  3 38  1  0  0  0  0
  3 39  1  0  0  0  0
  4  5  1  0  0  0  0
  4 25  1  0  0  0  0
  4 37  1  1  0  0  0
  5  6  2  0  0  0  0
  5  7  1  0  0  0  0
  7  8  1  0  0  0  0
  7 24  1  0  0  0  0
  8  9  2  0  0  0  0
  8 17  1  0  0  0  0
  9 10  1  0  0  0  0
  9 23  1  0  0  0  0
 10 11  2  0  0  0  0
 11 12  1  0  0  0  0
 11 22  1  0  0  0  0
 12 13  2  0  0  0  0
 12 17  1  0  0  0  0
 13 14  1  0  0  0  0
 13 21  1  0  0  0  0
 14 15  2  0  0  0  0
 14 20  1  0  0  0  0
 15 16  1  0  0  0  0
 15 19  1  0  0  0  0
 16 17  2  0  0  0  0
 16 18  1  0  0  0  0
 25 26  2  0  0  0  0
 25 31  1  0  0  0  0
 26 27  1  0  0  0  0
 26 36  1  0  0  0  0
 27 28  1  0  0  0  0
 27 29  2  0  0  0  0
 29 30  1  0  0  0  0
 29 35  1  0  0  0  0
 30 31  2  0  0  0  0
 30 34  1  0  0  0  0
 31 32  1  0  0  0  0
 32 33  2  0  0  0  0
M  END
>  <MODEL>
       1

$$$$
best_conformers_58.pdb
 OpenBabel02212512003D

 42 45  0  0  1  0  0  0  0  0999 V2000
  -12.7720   -2.4010  -22.8140 C   0  0  0  0  0  0  0  0  0  0  0  0
  -11.3430   -2.6570  -22.9930 N   0  0  0  0  0  0  0  0  0  0  0  0
  -10.4030   -1.9750  -22.1200 C   0  0  0  0  0  0  0  0  0  0  0  0
   -9.1660   -1.5360  -22.9120 C   0  0  1  0  0  0  0  0  0  0  0  0
   -8.1870   -0.7980  -22.0050 C   0  0  0  0  0  0  0  0  0  0  0  0
   -8.0950    0.4150  -22.0290 O   0  0  0  0  0  0  0  0  0  0  0  0
   -7.4520   -1.5770  -21.1380 N   0  0  0  0  0  0  0  0  0  0  0  0
   -6.6900   -1.0030  -20.0850 C   0  0  0  0  0  0  0  0  0  0  0  0
   -7.0440   -1.2320  -18.7820 C   0  0  0  0  0  0  0  0  0  0  0  0
   -6.4040   -0.7090  -17.7040 N   0  0  0  0  0  0  0  0  0  0  0  0
   -5.3670    0.0560  -17.9390 C   0  0  0  0  0  0  0  0  0  0  0  0
   -4.8710    0.3540  -19.2350 C   0  0  0  0  0  0  0  0  0  0  0  0
   -3.7320    1.1800  -19.4350 C   0  0  0  0  0  0  0  0  0  0  0  0
   -3.2680    1.4320  -20.6940 C   0  0  0  0  0  0  0  0  0  0  0  0
   -3.9160    0.8610  -21.8150 C   0  0  0  0  0  0  0  0  0  0  0  0
   -5.0160    0.0600  -21.6490 C   0  0  0  0  0  0  0  0  0  0  0  0
   -5.5420   -0.1960  -20.3520 C   0  0  0  0  0  0  0  0  0  0  0  0
   -5.5140   -0.3710  -22.5120 H   0  0  0  0  0  0  0  0  0  0  0  0
   -3.5480    1.0720  -22.8140 H   0  0  0  0  0  0  0  0  0  0  0  0
   -2.4050    2.0750  -20.8440 H   0  0  0  0  0  0  0  0  0  0  0  0
   -3.2510    1.6070  -18.5580 H   0  0  0  0  0  0  0  0  0  0  0  0
   -4.8590    0.4740  -17.0700 H   0  0  0  0  0  0  0  0  0  0  0  0
   -7.8990   -1.8640  -18.5430 H   0  0  0  0  0  0  0  0  0  0  0  0
   -7.6780   -2.5620  -21.0880 H   0  0  0  0  0  0  0  0  0  0  0  0
   -8.6140   -2.6990  -23.7050 C   0  0  0  0  0  0  0  0  0  0  0  0
   -7.2950   -2.6990  -24.1560 C   0  0  0  0  0  0  0  0  0  0  0  0
   -6.8200   -3.7700  -24.8910 C   0  0  0  0  0  0  0  0  0  0  0  0
   -5.1570   -3.7730  -25.4000 Cl  0  0  0  0  0  0  0  0  0  0  0  0
   -7.6410   -4.8430  -25.2300 C   0  0  0  0  0  0  0  0  0  0  0  0
   -8.9670   -4.8140  -24.8330 C   0  0  0  0  0  0  0  0  0  0  0  0
   -9.4600   -3.7440  -24.0840 C   0  0  0  0  0  0  0  0  0  0  0  0
  -10.9240   -3.7300  -23.7430 C   0  0  0  0  0  0  0  0  0  0  0  0
  -11.6760   -4.6170  -24.1230 O   0  0  0  0  0  0  0  0  0  0  0  0
   -9.6570   -5.6060  -25.1100 H   0  0  0  0  0  0  0  0  0  0  0  0
   -7.2400   -5.6670  -25.8100 H   0  0  0  0  0  0  0  0  0  0  0  0
   -6.6310   -1.8710  -23.9310 H   0  0  0  0  0  0  0  0  0  0  0  0
   -9.4870   -0.7650  -23.6180 H   0  0  0  0  0  0  0  0  0  0  0  0
  -10.9110   -1.0840  -21.7480 H   0  0  0  0  0  0  0  0  0  0  0  0
  -10.1050   -2.5940  -21.2530 H   0  0  0  0  0  0  0  0  0  0  0  0
  -12.9020   -1.6350  -22.0420 H   0  0  0  0  0  0  0  0  0  0  0  0
  -13.3110   -3.3130  -22.5240 H   0  0  0  0  0  0  0  0  0  0  0  0
  -13.2310   -2.0010  -23.7290 H   0  0  0  0  0  0  0  0  0  0  0  0
  1  2  1  0  0  0  0
  1 40  1  0  0  0  0
  1 41  1  0  0  0  0
  1 42  1  0  0  0  0
  2  3  1  0  0  0  0
  2 32  1  0  0  0  0
  3  4  1  0  0  0  0
  3 38  1  0  0  0  0
  3 39  1  0  0  0  0
  4  5  1  0  0  0  0
  4 25  1  0  0  0  0
  4 37  1  6  0  0  0
  5  6  2  0  0  0  0
  5  7  1  0  0  0  0
  7  8  1  0  0  0  0
  7 24  1  0  0  0  0
  8  9  2  0  0  0  0
  8 17  1  0  0  0  0
  9 10  1  0  0  0  0
  9 23  1  0  0  0  0
 10 11  2  0  0  0  0
 11 12  1  0  0  0  0
 11 22  1  0  0  0  0
 12 13  2  0  0  0  0
 12 17  1  0  0  0  0
 13 14  1  0  0  0  0
 13 21  1  0  0  0  0
 14 15  2  0  0  0  0
 14 20  1  0  0  0  0
 15 16  1  0  0  0  0
 15 19  1  0  0  0  0
 16 17  2  0  0  0  0
 16 18  1  0  0  0  0
 25 26  2  0  0  0  0
 25 31  1  0  0  0  0
 26 27  1  0  0  0  0
 26 36  1  0  0  0  0
 27 28  1  0  0  0  0
 27 29  2  0  0  0  0
 29 30  1  0  0  0  0
 29 35  1  0  0  0  0
 30 31  2  0  0  0  0
 30 34  1  0  0  0  0
 31 32  1  0  0  0  0
 32 33  2  0  0  0  0
M  END
>  <MODEL>
       2

$$$$
