best_conformers_24.pdb
 OpenBabel02042510453D

 70 75  0  0  1  0  0  0  0  0999 V2000
    4.7020   -7.7040   20.5990 C   0  0  0  0  0  0  0  0  0  0  0  0
    5.0950   -6.2990   20.5570 N   0  3  0  0  0  0  0  0  0  0  0  0
    6.5580   -6.1770   20.6880 C   0  0  0  0  0  0  0  0  0  0  0  0
    6.9410   -6.2620   22.1660 C   0  0  0  0  0  0  0  0  0  0  0  0
    6.6040   -5.0090   22.8310 N   0  0  0  0  0  0  0  0  0  0  0  0
    7.5230   -3.8830   22.6730 C   0  0  0  0  0  0  0  0  0  0  0  0
    6.8290   -2.4890   22.6550 C   0  0  2  0  0  0  0  0  0  0  0  0
    6.1560   -2.2300   21.2810 C   0  0  0  0  0  0  0  0  0  0  0  0
    5.5120   -3.0330   20.6330 O   0  0  0  0  0  0  0  0  0  0  0  0
    6.3770   -0.9140   20.9380 N   0  0  0  0  0  0  0  0  0  0  0  0
    5.7800   -0.2750   19.8160 C   0  0  0  0  0  0  0  0  0  0  0  0
    6.2650   -0.5020   18.5530 C   0  0  0  0  0  0  0  0  0  0  0  0
    5.8160    0.1210   17.4310 N   0  0  0  0  0  0  0  0  0  0  0  0
    4.8500    0.9970   17.5710 C   0  0  0  0  0  0  0  0  0  0  0  0
    4.2630    1.3440   18.8230 C   0  0  0  0  0  0  0  0  0  0  0  0
    3.2210    2.3050   18.9260 C   0  0  0  0  0  0  0  0  0  0  0  0
    2.6880    2.6170   20.1460 C   0  0  0  0  0  0  0  0  0  0  0  0
    3.1620    1.9800   21.3150 C   0  0  0  0  0  0  0  0  0  0  0  0
    4.1600    1.0370   21.2440 C   0  0  0  0  0  0  0  0  0  0  0  0
    4.7420    0.7000   19.9890 C   0  0  0  0  0  0  0  0  0  0  0  0
    4.5090    0.5410   22.1500 H   0  0  0  0  0  0  0  0  0  0  0  0
    2.7300    2.2350   22.2780 H   0  0  0  0  0  0  0  0  0  0  0  0
    1.8960    3.3590   20.2290 H   0  0  0  0  0  0  0  0  0  0  0  0
    2.8660    2.7940   18.0220 H   0  0  0  0  0  0  0  0  0  0  0  0
    4.4810    1.4850   16.6660 H   0  0  0  0  0  0  0  0  0  0  0  0
    7.0680   -1.2190   18.4020 H   0  0  0  0  0  0  0  0  0  0  0  0
    7.3470   -0.2310   21.7730 C   0  0  0  0  0  0  0  0  0  0  0  0
    7.8440   -1.3130   22.7630 C   0  0  2  0  0  0  0  0  0  0  0  0
    9.2920   -1.6960   22.4340 C   0  0  0  0  0  0  0  0  0  0  0  0
   10.1050   -0.5600   22.6280 O   0  0  0  0  0  0  0  0  0  0  0  0
   11.4470   -0.8280   22.2950 C   0  0  0  0  0  0  0  0  0  0  0  0
   12.2480    0.4310   22.5380 C   0  0  0  0  0  0  0  0  0  0  0  0
   13.7560    0.1750   22.5350 C   0  0  0  0  0  0  0  0  0  0  0  0
   13.7820    0.1130   23.9700 O   0  0  0  0  0  0  0  0  0  0  0  0
   12.4760    0.7060   24.0330 C   0  0  0  0  0  0  0  0  0  0  0  0
   12.5310    1.7730   24.2840 H   0  0  0  0  0  0  0  0  0  0  0  0
   11.8250    0.1850   24.7450 H   0  0  0  0  0  0  0  0  0  0  0  0
   14.1000   -0.7630   22.0790 H   0  0  0  0  0  0  0  0  0  0  0  0
   14.3590    1.0120   22.1570 H   0  0  0  0  0  0  0  0  0  0  0  0
   11.8670    1.2600   21.9410 H   0  0  0  0  0  0  0  0  0  0  0  0
   11.5280   -1.1530   21.2430 H   0  0  0  0  0  0  0  0  0  0  0  0
   11.8540   -1.6440   22.9190 H   0  0  0  0  0  0  0  0  0  0  0  0
    9.6450   -2.5120   23.0810 H   0  0  0  0  0  0  0  0  0  0  0  0
    9.3680   -2.0410   21.3860 H   0  0  0  0  0  0  0  0  0  0  0  0
    7.8700   -0.9350   23.7900 H   0  0  0  0  0  0  0  0  0  0  0  0
    8.1670    0.1580   21.1620 H   0  0  0  0  0  0  0  0  0  0  0  0
    6.9150    0.6350   22.2880 H   0  0  0  0  0  0  0  0  0  0  0  0
    5.7670   -2.4650   23.7590 C   0  0  0  0  0  0  0  0  0  0  0  0
    5.3540   -1.2870   24.3980 C   0  0  0  0  0  0  0  0  0  0  0  0
    4.3990   -1.3370   25.4010 C   0  0  0  0  0  0  0  0  0  0  0  0
    3.8910    0.1400   26.1800 Cl  0  0  0  0  0  0  0  0  0  0  0  0
    3.8210   -2.5390   25.8090 C   0  0  0  0  0  0  0  0  0  0  0  0
    4.1680   -3.6920   25.1350 C   0  0  0  0  0  0  0  0  0  0  0  0
    5.0990   -3.6450   24.1010 C   0  0  0  0  0  0  0  0  0  0  0  0
    5.3500   -4.8720   23.3120 C   0  0  0  0  0  0  0  0  0  0  0  0
    4.4640   -5.7120   23.0810 O   0  0  0  0  0  0  0  0  0  0  0  0
    3.7240   -4.6500   25.3910 H   0  0  0  0  0  0  0  0  0  0  0  0
    3.1030   -2.5550   26.6220 H   0  0  0  0  0  0  0  0  0  0  0  0
    5.7530   -0.3160   24.1250 H   0  0  0  0  0  0  0  0  0  0  0  0
    8.0630   -4.0270   21.7320 H   0  0  0  0  0  0  0  0  0  0  0  0
    8.2490   -3.9130   23.4940 H   0  0  0  0  0  0  0  0  0  0  0  0
    7.9840   -6.4990   22.3130 H   0  0  0  0  0  0  0  0  0  0  0  0
    6.4180   -7.0750   22.6790 H   0  0  0  0  0  0  0  0  0  0  0  0
    7.0540   -6.9500   20.0940 H   0  0  0  0  0  0  0  0  0  0  0  0
    6.8270   -5.2010   20.2930 H   0  0  0  0  0  0  0  0  0  0  0  0
    4.7330   -5.8060   19.7300 H   0  0  0  0  0  0  0  0  0  0  0  0
    4.6560   -5.8890   21.4030 H   0  0  0  0  0  0  0  0  0  0  0  0
    4.8540   -8.0310   21.6200 H   0  0  0  0  0  0  0  0  0  0  0  0
    3.6610   -7.8730   20.3460 H   0  0  0  0  0  0  0  0  0  0  0  0
    5.3350   -8.2870   19.9410 H   0  0  0  0  0  0  0  0  0  0  0  0
  1  2  1  0  0  0  0
  1 68  1  0  0  0  0
  1 69  1  0  0  0  0
  1 70  1  0  0  0  0
  2  3  1  0  0  0  0
  2 66  1  0  0  0  0
  2 67  1  0  0  0  0
  3  4  1  0  0  0  0
  3 64  1  0  0  0  0
  3 65  1  0  0  0  0
  4  5  1  0  0  0  0
  4 62  1  0  0  0  0
  4 63  1  0  0  0  0
  5  6  1  0  0  0  0
  5 55  1  0  0  0  0
  6  7  1  0  0  0  0
  6 60  1  0  0  0  0
  6 61  1  0  0  0  0
  7  8  1  6  0  0  0
  7 28  1  0  0  0  0
  7 48  1  0  0  0  0
  8  9  2  0  0  0  0
  8 10  1  0  0  0  0
 10 11  1  0  0  0  0
 10 27  1  0  0  0  0
 11 12  2  0  0  0  0
 11 20  1  0  0  0  0
 12 13  1  0  0  0  0
 12 26  1  0  0  0  0
 13 14  2  0  0  0  0
 14 15  1  0  0  0  0
 14 25  1  0  0  0  0
 15 16  2  0  0  0  0
 15 20  1  0  0  0  0
 16 17  1  0  0  0  0
 16 24  1  0  0  0  0
 17 18  2  0  0  0  0
 17 23  1  0  0  0  0
 18 19  1  0  0  0  0
 18 22  1  0  0  0  0
 19 20  2  0  0  0  0
 19 21  1  0  0  0  0
 27 28  1  0  0  0  0
 27 46  1  0  0  0  0
 27 47  1  0  0  0  0
 28 29  1  0  0  0  0
 28 45  1  1  0  0  0
 29 30  1  0  0  0  0
 29 43  1  0  0  0  0
 29 44  1  0  0  0  0
 30 31  1  0  0  0  0
 31 32  1  0  0  0  0
 31 41  1  0  0  0  0
 31 42  1  0  0  0  0
 32 33  1  0  0  0  0
 32 35  1  0  0  0  0
 32 40  1  0  0  0  0
 33 34  1  0  0  0  0
 33 38  1  0  0  0  0
 33 39  1  0  0  0  0
 34 35  1  0  0  0  0
 35 36  1  0  0  0  0
 35 37  1  0  0  0  0
 48 49  2  0  0  0  0
 48 54  1  0  0  0  0
 49 50  1  0  0  0  0
 49 59  1  0  0  0  0
 50 51  1  0  0  0  0
 50 52  2  0  0  0  0
 52 53  1  0  0  0  0
 52 58  1  0  0  0  0
 53 54  2  0  0  0  0
 53 57  1  0  0  0  0
 54 55  1  0  0  0  0
 55 56  2  0  0  0  0
M  CHG  1   2   1
M  END
>  <MODEL>
       1

$$$$
best_conformers_24.pdb
 OpenBabel02042510453D

 70 75  0  0  1  0  0  0  0  0999 V2000
    7.0020   -8.6260   22.6430 C   0  0  0  0  0  0  0  0  0  0  0  0
    6.1160   -7.4820   22.4590 N   0  3  0  0  0  0  0  0  0  0  0  0
    6.1330   -6.7950   21.1380 C   0  0  0  0  0  0  0  0  0  0  0  0
    5.2540   -5.5580   21.2630 C   0  0  0  0  0  0  0  0  0  0  0  0
    5.6910   -4.7170   22.3620 N   0  0  0  0  0  0  0  0  0  0  0  0
    6.8680   -3.9000   22.1920 C   0  0  0  0  0  0  0  0  0  0  0  0
    6.6120   -2.4580   22.6760 C   0  0  2  0  0  0  0  0  0  0  0  0
    5.6430   -1.8060   21.6630 C   0  0  0  0  0  0  0  0  0  0  0  0
    4.4910   -2.1160   21.4650 O   0  0  0  0  0  0  0  0  0  0  0  0
    6.3180   -0.8370   20.9500 N   0  0  0  0  0  0  0  0  0  0  0  0
    5.7670   -0.1920   19.8320 C   0  0  0  0  0  0  0  0  0  0  0  0
    6.2660   -0.4330   18.5770 C   0  0  0  0  0  0  0  0  0  0  0  0
    5.8010    0.1410   17.4430 N   0  0  0  0  0  0  0  0  0  0  0  0
    4.8120    0.9970   17.5760 C   0  0  0  0  0  0  0  0  0  0  0  0
    4.2350    1.3620   18.8280 C   0  0  0  0  0  0  0  0  0  0  0  0
    3.1890    2.3170   18.9200 C   0  0  0  0  0  0  0  0  0  0  0  0
    2.6810    2.6690   20.1410 C   0  0  0  0  0  0  0  0  0  0  0  0
    3.1900    2.0930   21.3280 C   0  0  0  0  0  0  0  0  0  0  0  0
    4.1990    1.1650   21.2670 C   0  0  0  0  0  0  0  0  0  0  0  0
    4.7280    0.7660   20.0050 C   0  0  0  0  0  0  0  0  0  0  0  0
    4.6000    0.7260   22.1760 H   0  0  0  0  0  0  0  0  0  0  0  0
    2.7830    2.3930   22.2900 H   0  0  0  0  0  0  0  0  0  0  0  0
    1.8860    3.4060   20.2080 H   0  0  0  0  0  0  0  0  0  0  0  0
    2.8210    2.7680   18.0020 H   0  0  0  0  0  0  0  0  0  0  0  0
    4.4240    1.4580   16.6680 H   0  0  0  0  0  0  0  0  0  0  0  0
    7.0750   -1.1510   18.4460 H   0  0  0  0  0  0  0  0  0  0  0  0
    7.7430   -0.8720   21.1570 C   0  0  0  0  0  0  0  0  0  0  0  0
    7.8810   -1.5660   22.5120 C   0  0  2  0  0  0  0  0  0  0  0  0
    9.2330   -2.2650   22.5450 C   0  0  0  0  0  0  0  0  0  0  0  0
    9.4390   -3.0420   23.6890 O   0  0  0  0  0  0  0  0  0  0  0  0
    9.7840   -2.3350   24.8580 C   0  0  0  0  0  0  0  0  0  0  0  0
    9.9880   -3.4330   25.8760 C   0  0  0  0  0  0  0  0  0  0  0  0
    8.6840   -4.0630   26.3830 C   0  0  0  0  0  0  0  0  0  0  0  0
    8.9920   -3.7080   27.7380 O   0  0  0  0  0  0  0  0  0  0  0  0
   10.2220   -3.0910   27.3390 C   0  0  0  0  0  0  0  0  0  0  0  0
   10.2090   -2.0220   27.5670 H   0  0  0  0  0  0  0  0  0  0  0  0
   11.1040   -3.5660   27.8060 H   0  0  0  0  0  0  0  0  0  0  0  0
    8.5600   -5.1450   26.2270 H   0  0  0  0  0  0  0  0  0  0  0  0
    7.7800   -3.5460   26.0340 H   0  0  0  0  0  0  0  0  0  0  0  0
   10.6990   -4.1510   25.4700 H   0  0  0  0  0  0  0  0  0  0  0  0
    8.9820   -1.6450   25.1750 H   0  0  0  0  0  0  0  0  0  0  0  0
   10.6900   -1.7270   24.7010 H   0  0  0  0  0  0  0  0  0  0  0  0
   10.0460   -1.5340   22.4040 H   0  0  0  0  0  0  0  0  0  0  0  0
    9.2940   -2.9580   21.7010 H   0  0  0  0  0  0  0  0  0  0  0  0
    7.8620   -0.7940   23.2830 H   0  0  0  0  0  0  0  0  0  0  0  0
    8.2600   -1.4350   20.3650 H   0  0  0  0  0  0  0  0  0  0  0  0
    8.1580    0.1400   21.1550 H   0  0  0  0  0  0  0  0  0  0  0  0
    5.9980   -2.5560   24.0710 C   0  0  0  0  0  0  0  0  0  0  0  0
    6.0170   -1.4730   24.9570 C   0  0  0  0  0  0  0  0  0  0  0  0
    5.4220   -1.5730   26.2070 C   0  0  0  0  0  0  0  0  0  0  0  0
    5.4950   -0.2130   27.2900 Cl  0  0  0  0  0  0  0  0  0  0  0  0
    4.7840   -2.7380   26.6350 C   0  0  0  0  0  0  0  0  0  0  0  0
    4.7370   -3.8060   25.7640 C   0  0  0  0  0  0  0  0  0  0  0  0
    5.3180   -3.7120   24.4990 C   0  0  0  0  0  0  0  0  0  0  0  0
    5.1630   -4.8810   23.6040 C   0  0  0  0  0  0  0  0  0  0  0  0
    4.6120   -5.9260   23.9620 O   0  0  0  0  0  0  0  0  0  0  0  0
    4.2450   -4.7330   26.0410 H   0  0  0  0  0  0  0  0  0  0  0  0
    4.3450   -2.8030   27.6260 H   0  0  0  0  0  0  0  0  0  0  0  0
    6.4920   -0.5370   24.6880 H   0  0  0  0  0  0  0  0  0  0  0  0
    7.7250   -4.3200   22.7300 H   0  0  0  0  0  0  0  0  0  0  0  0
    7.1030   -3.8750   21.1340 H   0  0  0  0  0  0  0  0  0  0  0  0
    5.2560   -4.9690   20.3370 H   0  0  0  0  0  0  0  0  0  0  0  0
    4.2270   -5.8470   21.4940 H   0  0  0  0  0  0  0  0  0  0  0  0
    5.7680   -7.4610   20.3490 H   0  0  0  0  0  0  0  0  0  0  0  0
    7.1580   -6.4990   20.8730 H   0  0  0  0  0  0  0  0  0  0  0  0
    5.1430   -7.7780   22.6580 H   0  0  0  0  0  0  0  0  0  0  0  0
    6.2970   -6.7660   23.1680 H   0  0  0  0  0  0  0  0  0  0  0  0
    6.7810   -9.3910   21.8950 H   0  0  0  0  0  0  0  0  0  0  0  0
    6.8790   -9.0740   23.6310 H   0  0  0  0  0  0  0  0  0  0  0  0
    8.0450   -8.3290   22.5410 H   0  0  0  0  0  0  0  0  0  0  0  0
  1  2  1  0  0  0  0
  1 68  1  0  0  0  0
  1 69  1  0  0  0  0
  1 70  1  0  0  0  0
  2  3  1  0  0  0  0
  2 66  1  0  0  0  0
  2 67  1  0  0  0  0
  3  4  1  0  0  0  0
  3 64  1  0  0  0  0
  3 65  1  0  0  0  0
  4  5  1  0  0  0  0
  4 62  1  0  0  0  0
  4 63  1  0  0  0  0
  5  6  1  0  0  0  0
  5 55  1  0  0  0  0
  6  7  1  0  0  0  0
  6 60  1  0  0  0  0
  6 61  1  0  0  0  0
  7  8  1  6  0  0  0
  7 28  1  0  0  0  0
  7 48  1  0  0  0  0
  8  9  2  0  0  0  0
  8 10  1  0  0  0  0
 10 11  1  0  0  0  0
 10 27  1  0  0  0  0
 11 12  2  0  0  0  0
 11 20  1  0  0  0  0
 12 13  1  0  0  0  0
 12 26  1  0  0  0  0
 13 14  2  0  0  0  0
 14 15  1  0  0  0  0
 14 25  1  0  0  0  0
 15 16  2  0  0  0  0
 15 20  1  0  0  0  0
 16 17  1  0  0  0  0
 16 24  1  0  0  0  0
 17 18  2  0  0  0  0
 17 23  1  0  0  0  0
 18 19  1  0  0  0  0
 18 22  1  0  0  0  0
 19 20  2  0  0  0  0
 19 21  1  0  0  0  0
 27 28  1  0  0  0  0
 27 46  1  0  0  0  0
 27 47  1  0  0  0  0
 28 29  1  0  0  0  0
 28 45  1  1  0  0  0
 29 30  1  0  0  0  0
 29 43  1  0  0  0  0
 29 44  1  0  0  0  0
 30 31  1  0  0  0  0
 31 32  1  0  0  0  0
 31 41  1  0  0  0  0
 31 42  1  0  0  0  0
 32 33  1  0  0  0  0
 32 35  1  0  0  0  0
 32 40  1  0  0  0  0
 33 34  1  0  0  0  0
 33 38  1  0  0  0  0
 33 39  1  0  0  0  0
 34 35  1  0  0  0  0
 35 36  1  0  0  0  0
 35 37  1  0  0  0  0
 48 49  2  0  0  0  0
 48 54  1  0  0  0  0
 49 50  1  0  0  0  0
 49 59  1  0  0  0  0
 50 51  1  0  0  0  0
 50 52  2  0  0  0  0
 52 53  1  0  0  0  0
 52 58  1  0  0  0  0
 53 54  2  0  0  0  0
 53 57  1  0  0  0  0
 54 55  1  0  0  0  0
 55 56  2  0  0  0  0
M  CHG  1   2   1
M  END
>  <MODEL>
       2

$$$$
best_conformers_24.pdb
 OpenBabel02042510453D

 70 75  0  0  1  0  0  0  0  0999 V2000
    7.2640    4.6770   22.5860 C   0  0  0  0  0  0  0  0  0  0  0  0
    7.4170    3.6850   23.6470 N   0  3  0  0  0  0  0  0  0  0  0  0
    6.1570    2.9560   23.9580 C   0  0  0  0  0  0  0  0  0  0  0  0
    6.3330    1.9320   25.0810 C   0  0  0  0  0  0  0  0  0  0  0  0
    7.2430    0.8340   24.7540 N   0  0  0  0  0  0  0  0  0  0  0  0
    6.7370   -0.4360   24.2730 C   0  0  0  0  0  0  0  0  0  0  0  0
    7.5400   -0.9770   23.0590 C   0  0  2  0  0  0  0  0  0  0  0  0
    7.2490   -0.1030   21.8240 C   0  0  0  0  0  0  0  0  0  0  0  0
    7.6230    1.0420   21.6410 O   0  0  0  0  0  0  0  0  0  0  0  0
    6.4520   -0.8080   20.9580 N   0  0  0  0  0  0  0  0  0  0  0  0
    5.8330   -0.1730   19.8510 C   0  0  0  0  0  0  0  0  0  0  0  0
    6.2620   -0.4630   18.5840 C   0  0  0  0  0  0  0  0  0  0  0  0
    5.7780    0.1130   17.4550 N   0  0  0  0  0  0  0  0  0  0  0  0
    4.8130    0.9920   17.5990 C   0  0  0  0  0  0  0  0  0  0  0  0
    4.2580    1.3650   18.8570 C   0  0  0  0  0  0  0  0  0  0  0  0
    3.2070    2.3140   18.9570 C   0  0  0  0  0  0  0  0  0  0  0  0
    2.6710    2.6350   20.1740 C   0  0  0  0  0  0  0  0  0  0  0  0
    3.1580    2.0220   21.3490 C   0  0  0  0  0  0  0  0  0  0  0  0
    4.1760    1.1020   21.2810 C   0  0  0  0  0  0  0  0  0  0  0  0
    4.7670    0.7610   20.0280 C   0  0  0  0  0  0  0  0  0  0  0  0
    4.5310    0.6330   22.1960 H   0  0  0  0  0  0  0  0  0  0  0  0
    2.7230    2.2830   22.3090 H   0  0  0  0  0  0  0  0  0  0  0  0
    1.8690    3.3630   20.2450 H   0  0  0  0  0  0  0  0  0  0  0  0
    2.8380    2.7770   18.0460 H   0  0  0  0  0  0  0  0  0  0  0  0
    4.4110    1.4540   16.6950 H   0  0  0  0  0  0  0  0  0  0  0  0
    7.0650   -1.1860   18.4450 H   0  0  0  0  0  0  0  0  0  0  0  0
    6.0280   -2.0960   21.4700 C   0  0  0  0  0  0  0  0  0  0  0  0
    7.0110   -2.3750   22.6230 C   0  0  2  0  0  0  0  0  0  0  0  0
    6.3800   -3.2070   23.7410 C   0  0  0  0  0  0  0  0  0  0  0  0
    6.0250   -4.4820   23.2530 O   0  0  0  0  0  0  0  0  0  0  0  0
    5.3460   -5.2460   24.2290 C   0  0  0  0  0  0  0  0  0  0  0  0
    5.0260   -6.6080   23.6450 C   0  0  0  0  0  0  0  0  0  0  0  0
    4.5420   -7.6480   24.6600 C   0  0  0  0  0  0  0  0  0  0  0  0
    5.7170   -8.4510   24.4920 O   0  0  0  0  0  0  0  0  0  0  0  0
    6.2250   -7.5560   23.4950 C   0  0  0  0  0  0  0  0  0  0  0  0
    7.1860   -7.1260   23.7970 H   0  0  0  0  0  0  0  0  0  0  0  0
    6.3220   -8.0410   22.5180 H   0  0  0  0  0  0  0  0  0  0  0  0
    4.4620   -7.2750   25.6890 H   0  0  0  0  0  0  0  0  0  0  0  0
    3.6310   -8.1980   24.3920 H   0  0  0  0  0  0  0  0  0  0  0  0
    4.4100   -6.5050   22.7490 H   0  0  0  0  0  0  0  0  0  0  0  0
    5.9710   -5.3620   25.1340 H   0  0  0  0  0  0  0  0  0  0  0  0
    4.4130   -4.7460   24.5480 H   0  0  0  0  0  0  0  0  0  0  0  0
    7.0920   -3.3180   24.5780 H   0  0  0  0  0  0  0  0  0  0  0  0
    5.4800   -2.6920   24.1230 H   0  0  0  0  0  0  0  0  0  0  0  0
    7.8450   -2.9600   22.2320 H   0  0  0  0  0  0  0  0  0  0  0  0
    4.9940   -2.0520   21.8430 H   0  0  0  0  0  0  0  0  0  0  0  0
    6.0750   -2.8510   20.6830 H   0  0  0  0  0  0  0  0  0  0  0  0
    9.0210   -0.8980   23.3650 C   0  0  0  0  0  0  0  0  0  0  0  0
    9.9400   -1.6240   22.6000 C   0  0  0  0  0  0  0  0  0  0  0  0
   11.2930   -1.5190   22.8640 C   0  0  0  0  0  0  0  0  0  0  0  0
   12.4350   -2.3230   21.8340 Cl  0  0  0  0  0  0  0  0  0  0  0  0
   11.7710   -0.7400   23.9150 C   0  0  0  0  0  0  0  0  0  0  0  0
   10.8750    0.0340   24.6150 C   0  0  0  0  0  0  0  0  0  0  0  0
    9.5090    0.0320   24.2960 C   0  0  0  0  0  0  0  0  0  0  0  0
    8.5730    1.1130   24.7690 C   0  0  0  0  0  0  0  0  0  0  0  0
    8.9550    2.2470   25.0610 O   0  0  0  0  0  0  0  0  0  0  0  0
   11.3250    0.6050   25.4090 H   0  0  0  0  0  0  0  0  0  0  0  0
   12.8320   -0.6990   24.1460 H   0  0  0  0  0  0  0  0  0  0  0  0
    9.5970   -2.2480   21.7820 H   0  0  0  0  0  0  0  0  0  0  0  0
    5.6870   -0.3200   23.9750 H   0  0  0  0  0  0  0  0  0  0  0  0
    6.7850   -1.1720   25.0820 H   0  0  0  0  0  0  0  0  0  0  0  0
    6.7090    2.4130   25.9920 H   0  0  0  0  0  0  0  0  0  0  0  0
    5.3610    1.5000   25.3330 H   0  0  0  0  0  0  0  0  0  0  0  0
    5.3750    3.6680   24.2420 H   0  0  0  0  0  0  0  0  0  0  0  0
    5.8180    2.4570   23.0490 H   0  0  0  0  0  0  0  0  0  0  0  0
    8.1480    3.0090   23.3750 H   0  0  0  0  0  0  0  0  0  0  0  0
    7.8020    4.1140   24.5110 H   0  0  0  0  0  0  0  0  0  0  0  0
    8.2020    5.2000   22.3950 H   0  0  0  0  0  0  0  0  0  0  0  0
    6.5020    5.4140   22.8600 H   0  0  0  0  0  0  0  0  0  0  0  0
    6.9470    4.1830   21.6610 H   0  0  0  0  0  0  0  0  0  0  0  0
  1  2  1  0  0  0  0
  1 68  1  0  0  0  0
  1 69  1  0  0  0  0
  1 70  1  0  0  0  0
  2  3  1  0  0  0  0
  2 66  1  0  0  0  0
  2 67  1  0  0  0  0
  3  4  1  0  0  0  0
  3 64  1  0  0  0  0
  3 65  1  0  0  0  0
  4  5  1  0  0  0  0
  4 62  1  0  0  0  0
  4 63  1  0  0  0  0
  5  6  1  0  0  0  0
  5 55  1  0  0  0  0
  6  7  1  0  0  0  0
  6 60  1  0  0  0  0
  6 61  1  0  0  0  0
  7  8  1  6  0  0  0
  7 28  1  0  0  0  0
  7 48  1  0  0  0  0
  8  9  2  0  0  0  0
  8 10  1  0  0  0  0
 10 11  1  0  0  0  0
 10 27  1  0  0  0  0
 11 12  2  0  0  0  0
 11 20  1  0  0  0  0
 12 13  1  0  0  0  0
 12 26  1  0  0  0  0
 13 14  2  0  0  0  0
 14 15  1  0  0  0  0
 14 25  1  0  0  0  0
 15 16  2  0  0  0  0
 15 20  1  0  0  0  0
 16 17  1  0  0  0  0
 16 24  1  0  0  0  0
 17 18  2  0  0  0  0
 17 23  1  0  0  0  0
 18 19  1  0  0  0  0
 18 22  1  0  0  0  0
 19 20  2  0  0  0  0
 19 21  1  0  0  0  0
 27 28  1  0  0  0  0
 27 46  1  0  0  0  0
 27 47  1  0  0  0  0
 28 29  1  0  0  0  0
 28 45  1  6  0  0  0
 29 30  1  0  0  0  0
 29 43  1  0  0  0  0
 29 44  1  0  0  0  0
 30 31  1  0  0  0  0
 31 32  1  0  0  0  0
 31 41  1  0  0  0  0
 31 42  1  0  0  0  0
 32 33  1  0  0  0  0
 32 35  1  0  0  0  0
 32 40  1  0  0  0  0
 33 34  1  0  0  0  0
 33 38  1  0  0  0  0
 33 39  1  0  0  0  0
 34 35  1  0  0  0  0
 35 36  1  0  0  0  0
 35 37  1  0  0  0  0
 48 49  2  0  0  0  0
 48 54  1  0  0  0  0
 49 50  1  0  0  0  0
 49 59  1  0  0  0  0
 50 51  1  0  0  0  0
 50 52  2  0  0  0  0
 52 53  1  0  0  0  0
 52 58  1  0  0  0  0
 53 54  2  0  0  0  0
 53 57  1  0  0  0  0
 54 55  1  0  0  0  0
 55 56  2  0  0  0  0
M  CHG  1   2   1
M  END
>  <MODEL>
       3

$$$$
best_conformers_24.pdb
 OpenBabel02042510453D

 70 75  0  0  1  0  0  0  0  0999 V2000
    6.7780    4.6720   23.3950 C   0  0  0  0  0  0  0  0  0  0  0  0
    7.0180    3.5110   24.2520 N   0  3  0  0  0  0  0  0  0  0  0  0
    5.8310    2.6210   24.4110 C   0  0  0  0  0  0  0  0  0  0  0  0
    6.1040    1.4550   25.3630 C   0  0  0  0  0  0  0  0  0  0  0  0
    7.1300    0.5330   24.8910 N   0  0  0  0  0  0  0  0  0  0  0  0
    6.7480   -0.7170   24.2710 C   0  0  0  0  0  0  0  0  0  0  0  0
    7.5950   -1.0170   23.0100 C   0  0  2  0  0  0  0  0  0  0  0  0
    7.1750   -0.0650   21.8720 C   0  0  0  0  0  0  0  0  0  0  0  0
    7.3890    1.1290   21.8030 O   0  0  0  0  0  0  0  0  0  0  0  0
    6.4640   -0.7900   20.9500 N   0  0  0  0  0  0  0  0  0  0  0  0
    5.8410   -0.1670   19.8510 C   0  0  0  0  0  0  0  0  0  0  0  0
    6.2700   -0.4680   18.5860 C   0  0  0  0  0  0  0  0  0  0  0  0
    5.7870    0.1040   17.4590 N   0  0  0  0  0  0  0  0  0  0  0  0
    4.8230    0.9850   17.6120 C   0  0  0  0  0  0  0  0  0  0  0  0
    4.2640    1.3580   18.8670 C   0  0  0  0  0  0  0  0  0  0  0  0
    3.2120    2.3060   18.9620 C   0  0  0  0  0  0  0  0  0  0  0  0
    2.6640    2.6210   20.1740 C   0  0  0  0  0  0  0  0  0  0  0  0
    3.1380    2.0000   21.3520 C   0  0  0  0  0  0  0  0  0  0  0  0
    4.1600    1.0840   21.2890 C   0  0  0  0  0  0  0  0  0  0  0  0
    4.7690    0.7560   20.0400 C   0  0  0  0  0  0  0  0  0  0  0  0
    4.5040    0.6120   22.2040 H   0  0  0  0  0  0  0  0  0  0  0  0
    2.6850    2.2550   22.3060 H   0  0  0  0  0  0  0  0  0  0  0  0
    1.8610    3.3480   20.2380 H   0  0  0  0  0  0  0  0  0  0  0  0
    2.8550    2.7700   18.0460 H   0  0  0  0  0  0  0  0  0  0  0  0
    4.4230    1.4440   16.7070 H   0  0  0  0  0  0  0  0  0  0  0  0
    7.0700   -1.1950   18.4530 H   0  0  0  0  0  0  0  0  0  0  0  0
    6.2260   -2.1680   21.3270 C   0  0  0  0  0  0  0  0  0  0  0  0
    7.2590   -2.4240   22.4380 C   0  0  2  0  0  0  0  0  0  0  0  0
    6.7680   -3.4310   23.4720 C   0  0  0  0  0  0  0  0  0  0  0  0
    6.5920   -4.6940   22.8710 O   0  0  0  0  0  0  0  0  0  0  0  0
    6.0670   -5.6180   23.7970 C   0  0  0  0  0  0  0  0  0  0  0  0
    5.9550   -6.9830   23.1530 C   0  0  0  0  0  0  0  0  0  0  0  0
    5.6770   -8.1090   24.1560 C   0  0  0  0  0  0  0  0  0  0  0  0
    6.8840   -8.7990   23.8030 O   0  0  0  0  0  0  0  0  0  0  0  0
    7.2850   -7.7240   22.9430 C   0  0  0  0  0  0  0  0  0  0  0  0
    7.4910   -8.0770   21.9330 H   0  0  0  0  0  0  0  0  0  0  0  0
    8.1520   -7.1780   23.3420 H   0  0  0  0  0  0  0  0  0  0  0  0
    5.7160   -7.7500   25.1950 H   0  0  0  0  0  0  0  0  0  0  0  0
    4.7820   -8.7290   24.0220 H   0  0  0  0  0  0  0  0  0  0  0  0
    5.3060   -6.9490   22.2740 H   0  0  0  0  0  0  0  0  0  0  0  0
    6.7290   -5.6910   24.6790 H   0  0  0  0  0  0  0  0  0  0  0  0
    5.0820   -5.2890   24.1740 H   0  0  0  0  0  0  0  0  0  0  0  0
    7.4920   -3.5130   24.3030 H   0  0  0  0  0  0  0  0  0  0  0  0
    5.8080   -3.0900   23.8990 H   0  0  0  0  0  0  0  0  0  0  0  0
    8.1640   -2.8500   21.9980 H   0  0  0  0  0  0  0  0  0  0  0  0
    5.2020   -2.3090   21.7020 H   0  0  0  0  0  0  0  0  0  0  0  0
    6.3590   -2.8250   20.4690 H   0  0  0  0  0  0  0  0  0  0  0  0
    9.0550   -0.7930   23.3130 C   0  0  0  0  0  0  0  0  0  0  0  0
   10.0180   -1.2990   22.4390 C   0  0  0  0  0  0  0  0  0  0  0  0
   11.3560   -1.1160   22.7090 C   0  0  0  0  0  0  0  0  0  0  0  0
   12.5290   -1.7530   21.5930 Cl  0  0  0  0  0  0  0  0  0  0  0  0
   11.7770   -0.4760   23.8740 C   0  0  0  0  0  0  0  0  0  0  0  0
   10.8210    0.0350   24.7290 C   0  0  0  0  0  0  0  0  0  0  0  0
    9.4620    0.0140   24.3820 C   0  0  0  0  0  0  0  0  0  0  0  0
    8.4270    0.9280   24.9980 C   0  0  0  0  0  0  0  0  0  0  0  0
    8.6940    2.0330   25.4690 O   0  0  0  0  0  0  0  0  0  0  0  0
   11.1770    0.4020   25.6810 H   0  0  0  0  0  0  0  0  0  0  0  0
   12.8380   -0.3560   24.0710 H   0  0  0  0  0  0  0  0  0  0  0  0
    9.7260   -1.8270   21.5370 H   0  0  0  0  0  0  0  0  0  0  0  0
    5.6950   -0.6560   23.9610 H   0  0  0  0  0  0  0  0  0  0  0  0
    6.8820   -1.5440   24.9840 H   0  0  0  0  0  0  0  0  0  0  0  0
    5.1860    0.8800   25.5210 H   0  0  0  0  0  0  0  0  0  0  0  0
    6.4230    1.8320   26.3400 H   0  0  0  0  0  0  0  0  0  0  0  0
    5.5540    2.2430   23.4220 H   0  0  0  0  0  0  0  0  0  0  0  0
    4.9800    3.1980   24.7880 H   0  0  0  0  0  0  0  0  0  0  0  0
    7.3770    3.7910   25.1870 H   0  0  0  0  0  0  0  0  0  0  0  0
    7.8010    2.9570   23.8620 H   0  0  0  0  0  0  0  0  0  0  0  0
    5.9620    5.2800   23.7980 H   0  0  0  0  0  0  0  0  0  0  0  0
    7.6730    5.2890   23.3140 H   0  0  0  0  0  0  0  0  0  0  0  0
    6.4870    4.3340   22.3950 H   0  0  0  0  0  0  0  0  0  0  0  0
  1  2  1  0  0  0  0
  1 68  1  0  0  0  0
  1 69  1  0  0  0  0
  1 70  1  0  0  0  0
  2  3  1  0  0  0  0
  2 66  1  0  0  0  0
  2 67  1  0  0  0  0
  3  4  1  0  0  0  0
  3 64  1  0  0  0  0
  3 65  1  0  0  0  0
  4  5  1  0  0  0  0
  4 62  1  0  0  0  0
  4 63  1  0  0  0  0
  5  6  1  0  0  0  0
  5 55  1  0  0  0  0
  6  7  1  0  0  0  0
  6 60  1  0  0  0  0
  6 61  1  0  0  0  0
  7  8  1  6  0  0  0
  7 28  1  0  0  0  0
  7 48  1  0  0  0  0
  8  9  2  0  0  0  0
  8 10  1  0  0  0  0
 10 11  1  0  0  0  0
 10 27  1  0  0  0  0
 11 12  2  0  0  0  0
 11 20  1  0  0  0  0
 12 13  1  0  0  0  0
 12 26  1  0  0  0  0
 13 14  2  0  0  0  0
 14 15  1  0  0  0  0
 14 25  1  0  0  0  0
 15 16  2  0  0  0  0
 15 20  1  0  0  0  0
 16 17  1  0  0  0  0
 16 24  1  0  0  0  0
 17 18  2  0  0  0  0
 17 23  1  0  0  0  0
 18 19  1  0  0  0  0
 18 22  1  0  0  0  0
 19 20  2  0  0  0  0
 19 21  1  0  0  0  0
 27 28  1  0  0  0  0
 27 46  1  0  0  0  0
 27 47  1  0  0  0  0
 28 29  1  0  0  0  0
 28 45  1  6  0  0  0
 29 30  1  0  0  0  0
 29 43  1  0  0  0  0
 29 44  1  0  0  0  0
 30 31  1  0  0  0  0
 31 32  1  0  0  0  0
 31 41  1  0  0  0  0
 31 42  1  0  0  0  0
 32 33  1  0  0  0  0
 32 35  1  0  0  0  0
 32 40  1  0  0  0  0
 33 34  1  0  0  0  0
 33 38  1  0  0  0  0
 33 39  1  0  0  0  0
 34 35  1  0  0  0  0
 35 36  1  0  0  0  0
 35 37  1  0  0  0  0
 48 49  2  0  0  0  0
 48 54  1  0  0  0  0
 49 50  1  0  0  0  0
 49 59  1  0  0  0  0
 50 51  1  0  0  0  0
 50 52  2  0  0  0  0
 52 53  1  0  0  0  0
 52 58  1  0  0  0  0
 53 54  2  0  0  0  0
 53 57  1  0  0  0  0
 54 55  1  0  0  0  0
 55 56  2  0  0  0  0
M  CHG  1   2   1
M  END
>  <MODEL>
       4

$$$$
best_conformers_24.pdb
 OpenBabel02042510453D

 70 75  0  0  1  0  0  0  0  0999 V2000
    1.8150   -5.9490   22.9860 C   0  0  0  0  0  0  0  0  0  0  0  0
    2.9320   -5.1440   22.4410 N   0  3  0  0  0  0  0  0  0  0  0  0
    4.2190   -5.8950   22.3250 C   0  0  0  0  0  0  0  0  0  0  0  0
    5.1180   -5.6430   23.5400 C   0  0  0  0  0  0  0  0  0  0  0  0
    5.3700   -4.2230   23.7550 N   0  0  0  0  0  0  0  0  0  0  0  0
    6.5880   -3.6530   23.2080 C   0  0  0  0  0  0  0  0  0  0  0  0
    6.5080   -2.1270   22.9210 C   0  0  2  0  0  0  0  0  0  0  0  0
    5.7420   -1.9180   21.5990 C   0  0  0  0  0  0  0  0  0  0  0  0
    4.7510   -2.5300   21.2420 O   0  0  0  0  0  0  0  0  0  0  0  0
    6.3830   -0.9420   20.8680 N   0  0  0  0  0  0  0  0  0  0  0  0
    5.7840   -0.2540   19.7730 C   0  0  0  0  0  0  0  0  0  0  0  0
    6.2800   -0.4370   18.5070 C   0  0  0  0  0  0  0  0  0  0  0  0
    5.8030    0.1610   17.3850 N   0  0  0  0  0  0  0  0  0  0  0  0
    4.8060    1.0020   17.5310 C   0  0  0  0  0  0  0  0  0  0  0  0
    4.2330    1.3390   18.7920 C   0  0  0  0  0  0  0  0  0  0  0  0
    3.1910    2.3000   18.8970 C   0  0  0  0  0  0  0  0  0  0  0  0
    2.6960    2.6480   20.1220 C   0  0  0  0  0  0  0  0  0  0  0  0
    3.2020    2.0390   21.2930 C   0  0  0  0  0  0  0  0  0  0  0  0
    4.1880    1.0850   21.2240 C   0  0  0  0  0  0  0  0  0  0  0  0
    4.7320    0.7090   19.9600 C   0  0  0  0  0  0  0  0  0  0  0  0
    4.5600    0.6270   22.1430 H   0  0  0  0  0  0  0  0  0  0  0  0
    2.8080    2.3360   22.2590 H   0  0  0  0  0  0  0  0  0  0  0  0
    1.9190    3.4040   20.2070 H   0  0  0  0  0  0  0  0  0  0  0  0
    2.8160    2.7670   17.9900 H   0  0  0  0  0  0  0  0  0  0  0  0
    4.4130    1.4810   16.6310 H   0  0  0  0  0  0  0  0  0  0  0  0
    7.1060   -1.1290   18.3480 H   0  0  0  0  0  0  0  0  0  0  0  0
    7.6700   -0.5470   21.4160 C   0  0  0  0  0  0  0  0  0  0  0  0
    7.8900   -1.4720   22.6380 C   0  0  2  0  0  0  0  0  0  0  0  0
    9.0560   -2.4290   22.4150 C   0  0  0  0  0  0  0  0  0  0  0  0
   10.2740   -1.7300   22.6080 O   0  0  0  0  0  0  0  0  0  0  0  0
   11.3210   -2.6530   22.3930 C   0  0  0  0  0  0  0  0  0  0  0  0
   12.7040   -2.0410   22.2700 C   0  0  0  0  0  0  0  0  0  0  0  0
   12.7950   -1.0850   21.1010 C   0  0  0  0  0  0  0  0  0  0  0  0
   13.6610   -0.1970   21.8120 O   0  0  0  0  0  0  0  0  0  0  0  0
   13.2730   -0.8310   23.0460 C   0  0  0  0  0  0  0  0  0  0  0  0
   12.5260   -0.2230   23.5750 H   0  0  0  0  0  0  0  0  0  0  0  0
   14.1470   -1.0060   23.6800 H   0  0  0  0  0  0  0  0  0  0  0  0
   13.1980   -1.4620   20.1540 H   0  0  0  0  0  0  0  0  0  0  0  0
   11.7950   -0.6500   20.9850 H   0  0  0  0  0  0  0  0  0  0  0  0
   13.4390   -2.8500   22.1890 H   0  0  0  0  0  0  0  0  0  0  0  0
   11.2710   -3.4420   23.1590 H   0  0  0  0  0  0  0  0  0  0  0  0
   11.1100   -3.1050   21.4120 H   0  0  0  0  0  0  0  0  0  0  0  0
    9.0220   -3.2720   23.1180 H   0  0  0  0  0  0  0  0  0  0  0  0
    9.0100   -2.8560   21.3970 H   0  0  0  0  0  0  0  0  0  0  0  0
    8.2020   -0.9040   23.5190 H   0  0  0  0  0  0  0  0  0  0  0  0
    7.6730    0.5100   21.7100 H   0  0  0  0  0  0  0  0  0  0  0  0
    8.4640   -0.6680   20.6710 H   0  0  0  0  0  0  0  0  0  0  0  0
    5.8200   -1.4260   24.0960 C   0  0  0  0  0  0  0  0  0  0  0  0
    6.0490   -0.0770   24.4180 C   0  0  0  0  0  0  0  0  0  0  0  0
    5.5310    0.4590   25.5870 C   0  0  0  0  0  0  0  0  0  0  0  0
    5.9380    2.0900   26.0440 Cl  0  0  0  0  0  0  0  0  0  0  0  0
    4.7060   -0.2860   26.4280 C   0  0  0  0  0  0  0  0  0  0  0  0
    4.3710   -1.5690   26.0460 C   0  0  0  0  0  0  0  0  0  0  0  0
    4.9180   -2.1320   24.8950 C   0  0  0  0  0  0  0  0  0  0  0  0
    4.5070   -3.5090   24.5130 C   0  0  0  0  0  0  0  0  0  0  0  0
    3.4120   -3.9760   24.8440 O   0  0  0  0  0  0  0  0  0  0  0  0
    3.6800   -2.1710   26.6280 H   0  0  0  0  0  0  0  0  0  0  0  0
    4.3170    0.1580   27.3380 H   0  0  0  0  0  0  0  0  0  0  0  0
    6.6290    0.5680   23.7630 H   0  0  0  0  0  0  0  0  0  0  0  0
    7.4020   -3.8440   23.9150 H   0  0  0  0  0  0  0  0  0  0  0  0
    6.8020   -4.1760   22.2700 H   0  0  0  0  0  0  0  0  0  0  0  0
    4.6500   -6.0380   24.4470 H   0  0  0  0  0  0  0  0  0  0  0  0
    6.0800   -6.1480   23.4200 H   0  0  0  0  0  0  0  0  0  0  0  0
    4.7220   -5.5740   21.4090 H   0  0  0  0  0  0  0  0  0  0  0  0
    4.0040   -6.9680   22.2460 H   0  0  0  0  0  0  0  0  0  0  0  0
    2.6860   -4.7150   21.5280 H   0  0  0  0  0  0  0  0  0  0  0  0
    3.0300   -4.3730   23.1250 H   0  0  0  0  0  0  0  0  0  0  0  0
    1.7680   -6.9360   22.5230 H   0  0  0  0  0  0  0  0  0  0  0  0
    1.9430   -6.0650   24.0650 H   0  0  0  0  0  0  0  0  0  0  0  0
    0.8640   -5.4460   22.8110 H   0  0  0  0  0  0  0  0  0  0  0  0
  1  2  1  0  0  0  0
  1 68  1  0  0  0  0
  1 69  1  0  0  0  0
  1 70  1  0  0  0  0
  2  3  1  0  0  0  0
  2 66  1  0  0  0  0
  2 67  1  0  0  0  0
  3  4  1  0  0  0  0
  3 64  1  0  0  0  0
  3 65  1  0  0  0  0
  4  5  1  0  0  0  0
  4 62  1  0  0  0  0
  4 63  1  0  0  0  0
  5  6  1  0  0  0  0
  5 55  1  0  0  0  0
  6  7  1  0  0  0  0
  6 60  1  0  0  0  0
  6 61  1  0  0  0  0
  7  8  1  6  0  0  0
  7 28  1  0  0  0  0
  7 48  1  0  0  0  0
  8  9  2  0  0  0  0
  8 10  1  0  0  0  0
 10 11  1  0  0  0  0
 10 27  1  0  0  0  0
 11 12  2  0  0  0  0
 11 20  1  0  0  0  0
 12 13  1  0  0  0  0
 12 26  1  0  0  0  0
 13 14  2  0  0  0  0
 14 15  1  0  0  0  0
 14 25  1  0  0  0  0
 15 16  2  0  0  0  0
 15 20  1  0  0  0  0
 16 17  1  0  0  0  0
 16 24  1  0  0  0  0
 17 18  2  0  0  0  0
 17 23  1  0  0  0  0
 18 19  1  0  0  0  0
 18 22  1  0  0  0  0
 19 20  2  0  0  0  0
 19 21  1  0  0  0  0
 27 28  1  0  0  0  0
 27 46  1  0  0  0  0
 27 47  1  0  0  0  0
 28 29  1  0  0  0  0
 28 45  1  1  0  0  0
 29 30  1  0  0  0  0
 29 43  1  0  0  0  0
 29 44  1  0  0  0  0
 30 31  1  0  0  0  0
 31 32  1  0  0  0  0
 31 41  1  0  0  0  0
 31 42  1  0  0  0  0
 32 33  1  0  0  0  0
 32 35  1  0  0  0  0
 32 40  1  0  0  0  0
 33 34  1  0  0  0  0
 33 38  1  0  0  0  0
 33 39  1  0  0  0  0
 34 35  1  0  0  0  0
 35 36  1  0  0  0  0
 35 37  1  0  0  0  0
 48 49  2  0  0  0  0
 48 54  1  0  0  0  0
 49 50  1  0  0  0  0
 49 59  1  0  0  0  0
 50 51  1  0  0  0  0
 50 52  2  0  0  0  0
 52 53  1  0  0  0  0
 52 58  1  0  0  0  0
 53 54  2  0  0  0  0
 53 57  1  0  0  0  0
 54 55  1  0  0  0  0
 55 56  2  0  0  0  0
M  CHG  1   2   1
M  END
>  <MODEL>
       5

$$$$
best_conformers_24.pdb
 OpenBabel02042510453D

 70 75  0  0  1  0  0  0  0  0999 V2000
    5.8260   -8.1120   25.2640 C   0  0  0  0  0  0  0  0  0  0  0  0
    5.2120   -6.8400   24.8510 N   0  3  0  0  0  0  0  0  0  0  0  0
    5.3420   -6.5930   23.3820 C   0  0  0  0  0  0  0  0  0  0  0  0
    4.6500   -5.2910   23.0020 C   0  0  0  0  0  0  0  0  0  0  0  0
    5.2240   -4.1290   23.6550 N   0  0  0  0  0  0  0  0  0  0  0  0
    6.5140   -3.6540   23.2040 C   0  0  0  0  0  0  0  0  0  0  0  0
    6.5330   -2.1240   22.9670 C   0  0  2  0  0  0  0  0  0  0  0  0
    5.6920   -1.7620   21.7260 C   0  0  0  0  0  0  0  0  0  0  0  0
    4.5810   -2.1700   21.4580 O   0  0  0  0  0  0  0  0  0  0  0  0
    6.3980   -0.8700   20.9580 N   0  0  0  0  0  0  0  0  0  0  0  0
    5.8040   -0.2050   19.8580 C   0  0  0  0  0  0  0  0  0  0  0  0
    6.2660   -0.4550   18.5880 C   0  0  0  0  0  0  0  0  0  0  0  0
    5.7870    0.1250   17.4620 N   0  0  0  0  0  0  0  0  0  0  0  0
    4.8140    0.9940   17.6100 C   0  0  0  0  0  0  0  0  0  0  0  0
    4.2420    1.3530   18.8690 C   0  0  0  0  0  0  0  0  0  0  0  0
    3.1970    2.3120   18.9590 C   0  0  0  0  0  0  0  0  0  0  0  0
    2.6830    2.6630   20.1760 C   0  0  0  0  0  0  0  0  0  0  0  0
    3.1950    2.0790   21.3550 C   0  0  0  0  0  0  0  0  0  0  0  0
    4.2030    1.1500   21.3000 C   0  0  0  0  0  0  0  0  0  0  0  0
    4.7490    0.7490   20.0420 C   0  0  0  0  0  0  0  0  0  0  0  0
    4.5930    0.7270   22.2250 H   0  0  0  0  0  0  0  0  0  0  0  0
    2.7790    2.3670   22.3150 H   0  0  0  0  0  0  0  0  0  0  0  0
    1.8810    3.3930   20.2440 H   0  0  0  0  0  0  0  0  0  0  0  0
    2.8280    2.7660   18.0430 H   0  0  0  0  0  0  0  0  0  0  0  0
    4.4190    1.4580   16.7050 H   0  0  0  0  0  0  0  0  0  0  0  0
    7.0580   -1.1880   18.4400 H   0  0  0  0  0  0  0  0  0  0  0  0
    7.7370   -0.5860   21.4300 C   0  0  0  0  0  0  0  0  0  0  0  0
    7.9520   -1.5700   22.6050 C   0  0  2  0  0  0  0  0  0  0  0  0
    9.0110   -2.6230   22.2140 C   0  0  0  0  0  0  0  0  0  0  0  0
   10.2560   -2.0130   21.9290 O   0  0  0  0  0  0  0  0  0  0  0  0
   11.1360   -1.9550   23.0290 C   0  0  0  0  0  0  0  0  0  0  0  0
   12.2950   -1.0470   22.6830 C   0  0  0  0  0  0  0  0  0  0  0  0
   13.3040   -1.6610   21.7000 C   0  0  0  0  0  0  0  0  0  0  0  0
   14.2980   -1.7410   22.7220 O   0  0  0  0  0  0  0  0  0  0  0  0
   13.4510   -1.1340   23.6900 C   0  0  0  0  0  0  0  0  0  0  0  0
   13.2840   -1.8060   24.5430 H   0  0  0  0  0  0  0  0  0  0  0  0
   13.8720   -0.1990   24.0740 H   0  0  0  0  0  0  0  0  0  0  0  0
   13.0300   -2.6390   21.3010 H   0  0  0  0  0  0  0  0  0  0  0  0
   13.6310   -1.0410   20.8640 H   0  0  0  0  0  0  0  0  0  0  0  0
   11.9490   -0.0480   22.4190 H   0  0  0  0  0  0  0  0  0  0  0  0
   10.6120   -1.5780   23.9180 H   0  0  0  0  0  0  0  0  0  0  0  0
   11.5010   -2.9680   23.2680 H   0  0  0  0  0  0  0  0  0  0  0  0
    9.1430   -3.3650   23.0110 H   0  0  0  0  0  0  0  0  0  0  0  0
    8.6960   -3.1570   21.3100 H   0  0  0  0  0  0  0  0  0  0  0  0
    8.3690   -1.0580   23.4810 H   0  0  0  0  0  0  0  0  0  0  0  0
    8.4690   -0.7480   20.6320 H   0  0  0  0  0  0  0  0  0  0  0  0
    7.8230    0.4640   21.7410 H   0  0  0  0  0  0  0  0  0  0  0  0
    5.9060   -1.4550   24.1950 C   0  0  0  0  0  0  0  0  0  0  0  0
    6.1820   -0.1100   24.4850 C   0  0  0  0  0  0  0  0  0  0  0  0
    5.5930    0.5010   25.5800 C   0  0  0  0  0  0  0  0  0  0  0  0
    5.9380    2.1780   25.9200 Cl  0  0  0  0  0  0  0  0  0  0  0  0
    4.7110   -0.1940   26.4070 C   0  0  0  0  0  0  0  0  0  0  0  0
    4.4050   -1.5130   26.1110 C   0  0  0  0  0  0  0  0  0  0  0  0
    4.9870   -2.1410   25.0080 C   0  0  0  0  0  0  0  0  0  0  0  0
    4.5740   -3.5560   24.6970 C   0  0  0  0  0  0  0  0  0  0  0  0
    3.7140   -4.1660   25.3330 O   0  0  0  0  0  0  0  0  0  0  0  0
    3.7030   -2.0910   26.7090 H   0  0  0  0  0  0  0  0  0  0  0  0
    4.2630    0.3110   27.2540 H   0  0  0  0  0  0  0  0  0  0  0  0
    6.8470    0.4880   23.8670 H   0  0  0  0  0  0  0  0  0  0  0  0
    7.2700   -3.8860   23.9720 H   0  0  0  0  0  0  0  0  0  0  0  0
    6.7460   -4.1720   22.2700 H   0  0  0  0  0  0  0  0  0  0  0  0
    3.6020   -5.3230   23.3020 H   0  0  0  0  0  0  0  0  0  0  0  0
    4.7120   -5.1330   21.9200 H   0  0  0  0  0  0  0  0  0  0  0  0
    6.4080   -6.5680   23.1280 H   0  0  0  0  0  0  0  0  0  0  0  0
    4.8930   -7.4240   22.8370 H   0  0  0  0  0  0  0  0  0  0  0  0
    5.6570   -6.0420   25.3560 H   0  0  0  0  0  0  0  0  0  0  0  0
    4.1930   -6.8290   25.1050 H   0  0  0  0  0  0  0  0  0  0  0  0
    6.8910   -8.1190   25.0170 H   0  0  0  0  0  0  0  0  0  0  0  0
    5.7180   -8.2650   26.3330 H   0  0  0  0  0  0  0  0  0  0  0  0
    5.3600   -8.9480   24.7370 H   0  0  0  0  0  0  0  0  0  0  0  0
  1  2  1  0  0  0  0
  1 68  1  0  0  0  0
  1 69  1  0  0  0  0
  1 70  1  0  0  0  0
  2  3  1  0  0  0  0
  2 66  1  0  0  0  0
  2 67  1  0  0  0  0
  3  4  1  0  0  0  0
  3 64  1  0  0  0  0
  3 65  1  0  0  0  0
  4  5  1  0  0  0  0
  4 62  1  0  0  0  0
  4 63  1  0  0  0  0
  5  6  1  0  0  0  0
  5 55  1  0  0  0  0
  6  7  1  0  0  0  0
  6 60  1  0  0  0  0
  6 61  1  0  0  0  0
  7  8  1  6  0  0  0
  7 28  1  0  0  0  0
  7 48  1  0  0  0  0
  8  9  2  0  0  0  0
  8 10  1  0  0  0  0
 10 11  1  0  0  0  0
 10 27  1  0  0  0  0
 11 12  2  0  0  0  0
 11 20  1  0  0  0  0
 12 13  1  0  0  0  0
 12 26  1  0  0  0  0
 13 14  2  0  0  0  0
 14 15  1  0  0  0  0
 14 25  1  0  0  0  0
 15 16  2  0  0  0  0
 15 20  1  0  0  0  0
 16 17  1  0  0  0  0
 16 24  1  0  0  0  0
 17 18  2  0  0  0  0
 17 23  1  0  0  0  0
 18 19  1  0  0  0  0
 18 22  1  0  0  0  0
 19 20  2  0  0  0  0
 19 21  1  0  0  0  0
 27 28  1  0  0  0  0
 27 46  1  0  0  0  0
 27 47  1  0  0  0  0
 28 29  1  0  0  0  0
 28 45  1  1  0  0  0
 29 30  1  0  0  0  0
 29 43  1  0  0  0  0
 29 44  1  0  0  0  0
 30 31  1  0  0  0  0
 31 32  1  0  0  0  0
 31 41  1  0  0  0  0
 31 42  1  0  0  0  0
 32 33  1  0  0  0  0
 32 35  1  0  0  0  0
 32 40  1  0  0  0  0
 33 34  1  0  0  0  0
 33 38  1  0  0  0  0
 33 39  1  0  0  0  0
 34 35  1  0  0  0  0
 35 36  1  0  0  0  0
 35 37  1  0  0  0  0
 48 49  2  0  0  0  0
 48 54  1  0  0  0  0
 49 50  1  0  0  0  0
 49 59  1  0  0  0  0
 50 51  1  0  0  0  0
 50 52  2  0  0  0  0
 52 53  1  0  0  0  0
 52 58  1  0  0  0  0
 53 54  2  0  0  0  0
 53 57  1  0  0  0  0
 54 55  1  0  0  0  0
 55 56  2  0  0  0  0
M  CHG  1   2   1
M  END
>  <MODEL>
       6

$$$$
