best_conformers_77.pdb
 OpenBabel02042510453D

 57 60  0  0  0  0  0  0  0  0999 V2000
    3.3880   -3.5420   26.5420 C   0  0  0  0  0  0  0  0  0  0  0  0
    4.8980   -3.3890   26.7780 C   0  0  0  0  0  0  0  0  0  0  0  0
    5.0550   -2.8380   28.2350 C   0  0  0  0  0  0  0  0  0  0  0  0
    6.0960   -2.6560   28.4830 H   0  0  0  0  0  0  0  0  0  0  0  0
    4.6820   -3.5520   28.9670 H   0  0  0  0  0  0  0  0  0  0  0  0
    4.5270   -1.9000   28.3960 H   0  0  0  0  0  0  0  0  0  0  0  0
    5.4740   -4.7710   26.8010 C   0  0  0  0  0  0  0  0  0  0  0  0
    5.4740   -4.7710   26.8010 N   0  0  0  0  0  0  0  0  0  0  0  0
    5.5430   -2.3660   25.8530 C   0  0  0  0  0  0  0  0  0  0  0  0
    5.0410   -1.0910   25.7590 C   0  0  0  0  0  0  0  0  0  0  0  0
    5.5810   -0.1510   24.8670 C   0  0  0  0  0  0  0  0  0  0  0  0
    6.6340   -0.4900   24.0230 C   0  0  0  0  0  0  0  0  0  0  0  0
    7.1730    0.4620   23.0950 N   0  0  0  0  0  0  0  0  0  0  0  0
    7.7910    1.6810   23.6540 C   0  0  0  0  0  0  0  0  0  0  0  0
    9.1490    1.3330   24.2230 C   0  0  0  0  0  0  0  0  0  0  0  0
   10.3150    1.5900   23.5320 C   0  0  0  0  0  0  0  0  0  0  0  0
   11.5900    1.2260   24.0120 C   0  0  0  0  0  0  0  0  0  0  0  0
   11.6800    0.4710   25.1290 C   0  0  0  0  0  0  0  0  0  0  0  0
   10.4500    0.0540   25.7280 C   0  0  0  0  0  0  0  0  0  0  0  0
   10.6120   -0.8400   27.0920 Cl  0  0  0  0  0  0  0  0  0  0  0  0
    9.1720    0.5800   25.3890 C   0  0  0  0  0  0  0  0  0  0  0  0
    8.3670    0.6300   26.1320 H   0  0  0  0  0  0  0  0  0  0  0  0
   12.5630    0.4000   25.7500 H   0  0  0  0  0  0  0  0  0  0  0  0
   12.5070    1.4790   23.5000 H   0  0  0  0  0  0  0  0  0  0  0  0
   10.2710    2.0000   22.5450 H   0  0  0  0  0  0  0  0  0  0  0  0
    7.9010    2.4280   22.8650 H   0  0  0  0  0  0  0  0  0  0  0  0
    7.1380    2.0840   24.4340 H   0  0  0  0  0  0  0  0  0  0  0  0
    7.4210    0.1590   21.7610 C   0  0  0  0  0  0  0  0  0  0  0  0
    8.3190    0.6960   21.1290 O   0  0  0  0  0  0  0  0  0  0  0  0
    6.4750   -0.8230   21.0400 C   0  0  0  0  0  0  0  0  0  0  0  0
    5.8060   -0.1730   19.8440 C   0  0  0  0  0  0  0  0  0  0  0  0
    6.2330   -0.4370   18.5680 C   0  0  0  0  0  0  0  0  0  0  0  0
    5.7510    0.1390   17.4320 N   0  0  0  0  0  0  0  0  0  0  0  0
    4.7850    1.0140   17.5790 C   0  0  0  0  0  0  0  0  0  0  0  0
    4.2260    1.3800   18.8360 C   0  0  0  0  0  0  0  0  0  0  0  0
    3.1780    2.3320   18.9390 C   0  0  0  0  0  0  0  0  0  0  0  0
    2.6590    2.6600   20.1630 C   0  0  0  0  0  0  0  0  0  0  0  0
    3.1680    2.0520   21.3320 C   0  0  0  0  0  0  0  0  0  0  0  0
    4.1840    1.1300   21.2610 C   0  0  0  0  0  0  0  0  0  0  0  0
    4.7450    0.7720   20.0020 C   0  0  0  0  0  0  0  0  0  0  0  0
    4.5640    0.6800   22.1760 H   0  0  0  0  0  0  0  0  0  0  0  0
    2.7500    2.3220   22.2980 H   0  0  0  0  0  0  0  0  0  0  0  0
    1.8580    3.3890   20.2440 H   0  0  0  0  0  0  0  0  0  0  0  0
    2.7980    2.7970   18.0320 H   0  0  0  0  0  0  0  0  0  0  0  0
    4.3950    1.4910   16.6780 H   0  0  0  0  0  0  0  0  0  0  0  0
    7.0240   -1.1680   18.4050 H   0  0  0  0  0  0  0  0  0  0  0  0
    7.0920   -1.6610   20.6910 H   0  0  0  0  0  0  0  0  0  0  0  0
    5.7320   -1.2400   21.7270 H   0  0  0  0  0  0  0  0  0  0  0  0
    7.1560   -1.7860   24.1360 C   0  0  0  0  0  0  0  0  0  0  0  0
    6.6260   -2.6880   25.0300 C   0  0  0  0  0  0  0  0  0  0  0  0
    7.0360   -3.6960   25.1000 H   0  0  0  0  0  0  0  0  0  0  0  0
    8.0010   -2.0750   23.5120 H   0  0  0  0  0  0  0  0  0  0  0  0
    5.1550    0.8550   24.8000 H   0  0  0  0  0  0  0  0  0  0  0  0
    4.2120   -0.7430   26.3640 H   0  0  0  0  0  0  0  0  0  0  0  0
    2.8010   -2.5690   26.6470 H   0  0  0  0  0  0  0  0  0  0  0  0
    3.3340   -3.9190   25.5410 H   0  0  0  0  0  0  0  0  0  0  0  0
    3.0870   -4.3160   27.2030 H   0  0  0  0  0  0  0  0  0  0  0  0
  1  2  1  0  0  0  0
  1 55  1  0  0  0  0
  1 56  1  0  0  0  0
  1 57  1  0  0  0  0
  2  3  1  0  0  0  0
  2  7  1  0  0  0  0
  2  9  1  0  0  0  0
  3  4  1  0  0  0  0
  3  5  1  0  0  0  0
  3  6  1  0  0  0  0
  7  8  3  0  0  0  0
  9 10  2  0  0  0  0
  9 50  1  0  0  0  0
 10 11  1  0  0  0  0
 10 54  1  0  0  0  0
 11 12  2  0  0  0  0
 11 53  1  0  0  0  0
 12 13  1  0  0  0  0
 12 49  1  0  0  0  0
 13 14  1  0  0  0  0
 13 28  1  0  0  0  0
 14 15  1  0  0  0  0
 14 26  1  0  0  0  0
 14 27  1  0  0  0  0
 15 16  2  0  0  0  0
 15 21  1  0  0  0  0
 16 17  1  0  0  0  0
 16 25  1  0  0  0  0
 17 18  2  0  0  0  0
 17 24  1  0  0  0  0
 18 19  1  0  0  0  0
 18 23  1  0  0  0  0
 19 20  1  0  0  0  0
 19 21  2  0  0  0  0
 21 22  1  0  0  0  0
 28 29  2  0  0  0  0
 28 30  1  0  0  0  0
 30 31  1  0  0  0  0
 30 47  1  0  0  0  0
 30 48  1  0  0  0  0
 31 32  2  0  0  0  0
 31 40  1  0  0  0  0
 32 33  1  0  0  0  0
 32 46  1  0  0  0  0
 33 34  2  0  0  0  0
 34 35  1  0  0  0  0
 34 45  1  0  0  0  0
 35 36  2  0  0  0  0
 35 40  1  0  0  0  0
 36 37  1  0  0  0  0
 36 44  1  0  0  0  0
 37 38  2  0  0  0  0
 37 43  1  0  0  0  0
 38 39  1  0  0  0  0
 38 42  1  0  0  0  0
 39 40  2  0  0  0  0
 39 41  1  0  0  0  0
 49 50  2  0  0  0  0
 49 52  1  0  0  0  0
 50 51  1  0  0  0  0
M  END
>  <MODEL>
       1

$$$$
