best_conformers_44.pdb
 OpenBabel02042510453D

 56 60  0  0  1  0  0  0  0  0999 V2000
    5.9100   -8.6430   24.7450 C   0  0  0  0  0  0  0  0  0  0  0  0
    5.2320   -7.5840   24.0430 N   0  0  0  0  0  0  0  0  0  0  0  0
    5.9550   -6.8610   23.1690 C   0  0  0  0  0  0  0  0  0  0  0  0
    7.1200   -7.1290   22.8980 O   0  0  0  0  0  0  0  0  0  0  0  0
    5.2250   -5.6780   22.5450 C   0  0  0  0  0  0  0  0  0  0  0  0
    5.4860   -4.4370   23.2370 N   0  0  0  0  0  0  0  0  0  0  0  0
    6.7460   -3.7590   23.0070 C   0  0  0  0  0  0  0  0  0  0  0  0
    6.5490   -2.2290   22.8990 C   0  0  2  0  0  0  0  0  0  0  0  0
    5.7510   -1.8840   21.6170 C   0  0  0  0  0  0  0  0  0  0  0  0
    4.7170   -2.3910   21.2370 O   0  0  0  0  0  0  0  0  0  0  0  0
    6.3990   -0.8620   20.9620 N   0  0  0  0  0  0  0  0  0  0  0  0
    5.8010   -0.2090   19.8510 C   0  0  0  0  0  0  0  0  0  0  0  0
    6.2560   -0.4630   18.5830 C   0  0  0  0  0  0  0  0  0  0  0  0
    5.7850    0.1340   17.4590 N   0  0  0  0  0  0  0  0  0  0  0  0
    4.8110    1.0010   17.6070 C   0  0  0  0  0  0  0  0  0  0  0  0
    4.2340    1.3580   18.8630 C   0  0  0  0  0  0  0  0  0  0  0  0
    3.1860    2.3160   18.9610 C   0  0  0  0  0  0  0  0  0  0  0  0
    2.6650    2.6460   20.1810 C   0  0  0  0  0  0  0  0  0  0  0  0
    3.1730    2.0460   21.3570 C   0  0  0  0  0  0  0  0  0  0  0  0
    4.1860    1.1200   21.2900 C   0  0  0  0  0  0  0  0  0  0  0  0
    4.7400    0.7420   20.0300 C   0  0  0  0  0  0  0  0  0  0  0  0
    4.5710    0.6720   22.2060 H   0  0  0  0  0  0  0  0  0  0  0  0
    2.7510    2.3200   22.3190 H   0  0  0  0  0  0  0  0  0  0  0  0
    1.8620    3.3760   20.2550 H   0  0  0  0  0  0  0  0  0  0  0  0
    2.8170    2.7770   18.0480 H   0  0  0  0  0  0  0  0  0  0  0  0
    4.4190    1.4610   16.7000 H   0  0  0  0  0  0  0  0  0  0  0  0
    7.0500   -1.1900   18.4230 H   0  0  0  0  0  0  0  0  0  0  0  0
    7.6000   -0.3820   21.6140 C   0  0  0  0  0  0  0  0  0  0  0  0
    7.8800   -1.4200   22.7310 C   0  0  2  0  0  0  0  0  0  0  0  0
    9.1190   -2.2630   22.3970 C   0  0  0  0  0  0  0  0  0  0  0  0
   10.6140   -1.2580   22.3640 Cl  0  0  0  0  0  0  0  0  0  0  0  0
    9.0430   -2.7340   21.4150 H   0  0  0  0  0  0  0  0  0  0  0  0
    9.3040   -3.0240   23.1540 H   0  0  0  0  0  0  0  0  0  0  0  0
    8.1190   -0.9280   23.6790 H   0  0  0  0  0  0  0  0  0  0  0  0
    8.4290   -0.3180   20.9010 H   0  0  0  0  0  0  0  0  0  0  0  0
    7.4640    0.6310   22.0230 H   0  0  0  0  0  0  0  0  0  0  0  0
    5.7270   -1.7940   24.1150 C   0  0  0  0  0  0  0  0  0  0  0  0
    5.7440   -0.4570   24.5400 C   0  0  0  0  0  0  0  0  0  0  0  0
    4.9480   -0.0570   25.6000 C   0  0  0  0  0  0  0  0  0  0  0  0
    4.9680    1.6080   26.1120 Cl  0  0  0  0  0  0  0  0  0  0  0  0
    4.1160   -0.9540   26.2650 C   0  0  0  0  0  0  0  0  0  0  0  0
    4.0690   -2.2640   25.8300 C   0  0  0  0  0  0  0  0  0  0  0  0
    4.8490   -2.6830   24.7560 C   0  0  0  0  0  0  0  0  0  0  0  0
    4.6650   -4.0860   24.2620 C   0  0  0  0  0  0  0  0  0  0  0  0
    3.8200   -4.8630   24.7060 O   0  0  0  0  0  0  0  0  0  0  0  0
    3.4120   -2.9970   26.2850 H   0  0  0  0  0  0  0  0  0  0  0  0
    3.5090   -0.6110   27.0930 H   0  0  0  0  0  0  0  0  0  0  0  0
    6.3510    0.3010   24.0530 H   0  0  0  0  0  0  0  0  0  0  0  0
    7.1580   -4.1660   22.0820 H   0  0  0  0  0  0  0  0  0  0  0  0
    7.4360   -3.9760   23.8370 H   0  0  0  0  0  0  0  0  0  0  0  0
    5.5970   -5.5810   21.5220 H   0  0  0  0  0  0  0  0  0  0  0  0
    4.1430   -5.8330   22.5330 H   0  0  0  0  0  0  0  0  0  0  0  0
    4.2630   -7.3550   24.2170 H   0  0  0  0  0  0  0  0  0  0  0  0
    6.6950   -8.2430   25.4020 H   0  0  0  0  0  0  0  0  0  0  0  0
    6.4030   -9.3060   24.0180 H   0  0  0  0  0  0  0  0  0  0  0  0
    5.1640   -9.1690   25.3430 H   0  0  0  0  0  0  0  0  0  0  0  0
  1  2  1  0  0  0  0
  1 54  1  0  0  0  0
  1 55  1  0  0  0  0
  1 56  1  0  0  0  0
  2  3  1  0  0  0  0
  2 53  1  0  0  0  0
  3  4  2  0  0  0  0
  3  5  1  0  0  0  0
  5  6  1  0  0  0  0
  5 51  1  0  0  0  0
  5 52  1  0  0  0  0
  6  7  1  0  0  0  0
  6 44  1  0  0  0  0
  7  8  1  0  0  0  0
  7 49  1  0  0  0  0
  7 50  1  0  0  0  0
  8  9  1  6  0  0  0
  8 29  1  0  0  0  0
  8 37  1  0  0  0  0
  9 10  2  0  0  0  0
  9 11  1  0  0  0  0
 11 12  1  0  0  0  0
 11 28  1  0  0  0  0
 12 13  2  0  0  0  0
 12 21  1  0  0  0  0
 13 14  1  0  0  0  0
 13 27  1  0  0  0  0
 14 15  2  0  0  0  0
 15 16  1  0  0  0  0
 15 26  1  0  0  0  0
 16 17  2  0  0  0  0
 16 21  1  0  0  0  0
 17 18  1  0  0  0  0
 17 25  1  0  0  0  0
 18 19  2  0  0  0  0
 18 24  1  0  0  0  0
 19 20  1  0  0  0  0
 19 23  1  0  0  0  0
 20 21  2  0  0  0  0
 20 22  1  0  0  0  0
 28 29  1  0  0  0  0
 28 35  1  0  0  0  0
 28 36  1  0  0  0  0
 29 30  1  0  0  0  0
 29 34  1  1  0  0  0
 30 31  1  0  0  0  0
 30 32  1  0  0  0  0
 30 33  1  0  0  0  0
 37 38  2  0  0  0  0
 37 43  1  0  0  0  0
 38 39  1  0  0  0  0
 38 48  1  0  0  0  0
 39 40  1  0  0  0  0
 39 41  2  0  0  0  0
 41 42  1  0  0  0  0
 41 47  1  0  0  0  0
 42 43  2  0  0  0  0
 42 46  1  0  0  0  0
 43 44  1  0  0  0  0
 44 45  2  0  0  0  0
M  END
>  <MODEL>
       1

$$$$
best_conformers_44.pdb
 OpenBabel02042510453D

 56 60  0  0  1  0  0  0  0  0999 V2000
    5.0430   -8.2360   25.4220 C   0  0  0  0  0  0  0  0  0  0  0  0
    4.5200   -7.0440   24.7900 N   0  0  0  0  0  0  0  0  0  0  0  0
    5.1890   -6.5500   23.7240 C   0  0  0  0  0  0  0  0  0  0  0  0
    6.2010   -7.0740   23.2800 O   0  0  0  0  0  0  0  0  0  0  0  0
    4.5860   -5.2830   23.1100 C   0  0  0  0  0  0  0  0  0  0  0  0
    5.1570   -4.0690   23.6480 N   0  0  0  0  0  0  0  0  0  0  0  0
    6.4760   -3.6570   23.2120 C   0  0  0  0  0  0  0  0  0  0  0  0
    6.5440   -2.1310   22.9730 C   0  0  2  0  0  0  0  0  0  0  0  0
    5.6780   -1.7490   21.7490 C   0  0  0  0  0  0  0  0  0  0  0  0
    4.5530   -2.1280   21.5100 O   0  0  0  0  0  0  0  0  0  0  0  0
    6.3910   -0.8720   20.9620 N   0  0  0  0  0  0  0  0  0  0  0  0
    5.7990   -0.2110   19.8550 C   0  0  0  0  0  0  0  0  0  0  0  0
    6.2570   -0.4610   18.5870 C   0  0  0  0  0  0  0  0  0  0  0  0
    5.7850    0.1320   17.4620 N   0  0  0  0  0  0  0  0  0  0  0  0
    4.8090    0.9980   17.6100 C   0  0  0  0  0  0  0  0  0  0  0  0
    4.2380    1.3620   18.8640 C   0  0  0  0  0  0  0  0  0  0  0  0
    3.1910    2.3210   18.9580 C   0  0  0  0  0  0  0  0  0  0  0  0
    2.6770    2.6700   20.1750 C   0  0  0  0  0  0  0  0  0  0  0  0
    3.1980    2.0860   21.3550 C   0  0  0  0  0  0  0  0  0  0  0  0
    4.2120    1.1620   21.2930 C   0  0  0  0  0  0  0  0  0  0  0  0
    4.7490    0.7540   20.0350 C   0  0  0  0  0  0  0  0  0  0  0  0
    4.6000    0.7260   22.2150 H   0  0  0  0  0  0  0  0  0  0  0  0
    2.7820    2.3710   22.3180 H   0  0  0  0  0  0  0  0  0  0  0  0
    1.8760    3.4020   20.2470 H   0  0  0  0  0  0  0  0  0  0  0  0
    2.8190    2.7740   18.0400 H   0  0  0  0  0  0  0  0  0  0  0  0
    4.4180    1.4570   16.7020 H   0  0  0  0  0  0  0  0  0  0  0  0
    7.0510   -1.1900   18.4290 H   0  0  0  0  0  0  0  0  0  0  0  0
    7.7480   -0.6220   21.4060 C   0  0  0  0  0  0  0  0  0  0  0  0
    7.9670   -1.5990   22.5900 C   0  0  2  0  0  0  0  0  0  0  0  0
    8.9940   -2.6800   22.2250 C   0  0  0  0  0  0  0  0  0  0  0  0
   10.6250   -1.9780   21.9280 Cl  0  0  0  0  0  0  0  0  0  0  0  0
    8.7210   -3.2130   21.3130 H   0  0  0  0  0  0  0  0  0  0  0  0
    9.1340   -3.3960   23.0340 H   0  0  0  0  0  0  0  0  0  0  0  0
    8.3990   -1.0820   23.4520 H   0  0  0  0  0  0  0  0  0  0  0  0
    8.4630   -0.8070   20.5960 H   0  0  0  0  0  0  0  0  0  0  0  0
    7.8870    0.4290   21.7040 H   0  0  0  0  0  0  0  0  0  0  0  0
    5.9600   -1.4520   24.2130 C   0  0  0  0  0  0  0  0  0  0  0  0
    6.2510   -0.1080   24.4850 C   0  0  0  0  0  0  0  0  0  0  0  0
    5.6780    0.5170   25.5800 C   0  0  0  0  0  0  0  0  0  0  0  0
    6.0470    2.1860   25.9080 Cl  0  0  0  0  0  0  0  0  0  0  0  0
    4.8040   -0.1560   26.4280 C   0  0  0  0  0  0  0  0  0  0  0  0
    4.4840   -1.4680   26.1430 C   0  0  0  0  0  0  0  0  0  0  0  0
    5.0350   -2.1120   25.0380 C   0  0  0  0  0  0  0  0  0  0  0  0
    4.5500   -3.4950   24.7200 C   0  0  0  0  0  0  0  0  0  0  0  0
    3.6600   -4.0730   25.3370 O   0  0  0  0  0  0  0  0  0  0  0  0
    3.7810   -2.0300   26.7470 H   0  0  0  0  0  0  0  0  0  0  0  0
    4.3760    0.3620   27.2780 H   0  0  0  0  0  0  0  0  0  0  0  0
    6.9040    0.4840   23.8510 H   0  0  0  0  0  0  0  0  0  0  0  0
    6.6840   -4.2050   22.2930 H   0  0  0  0  0  0  0  0  0  0  0  0
    7.2190   -3.9370   23.9750 H   0  0  0  0  0  0  0  0  0  0  0  0
    3.5030   -5.2320   23.2600 H   0  0  0  0  0  0  0  0  0  0  0  0
    4.8050   -5.3080   22.0400 H   0  0  0  0  0  0  0  0  0  0  0  0
    3.6760   -6.5810   25.1010 H   0  0  0  0  0  0  0  0  0  0  0  0
    6.0490   -8.0560   25.8230 H   0  0  0  0  0  0  0  0  0  0  0  0
    4.3750   -8.5350   26.2310 H   0  0  0  0  0  0  0  0  0  0  0  0
    5.1230   -9.0230   24.6680 H   0  0  0  0  0  0  0  0  0  0  0  0
  1  2  1  0  0  0  0
  1 54  1  0  0  0  0
  1 55  1  0  0  0  0
  1 56  1  0  0  0  0
  2  3  1  0  0  0  0
  2 53  1  0  0  0  0
  3  4  2  0  0  0  0
  3  5  1  0  0  0  0
  5  6  1  0  0  0  0
  5 51  1  0  0  0  0
  5 52  1  0  0  0  0
  6  7  1  0  0  0  0
  6 44  1  0  0  0  0
  7  8  1  0  0  0  0
  7 49  1  0  0  0  0
  7 50  1  0  0  0  0
  8  9  1  6  0  0  0
  8 29  1  0  0  0  0
  8 37  1  0  0  0  0
  9 10  2  0  0  0  0
  9 11  1  0  0  0  0
 11 12  1  0  0  0  0
 11 28  1  0  0  0  0
 12 13  2  0  0  0  0
 12 21  1  0  0  0  0
 13 14  1  0  0  0  0
 13 27  1  0  0  0  0
 14 15  2  0  0  0  0
 15 16  1  0  0  0  0
 15 26  1  0  0  0  0
 16 17  2  0  0  0  0
 16 21  1  0  0  0  0
 17 18  1  0  0  0  0
 17 25  1  0  0  0  0
 18 19  2  0  0  0  0
 18 24  1  0  0  0  0
 19 20  1  0  0  0  0
 19 23  1  0  0  0  0
 20 21  2  0  0  0  0
 20 22  1  0  0  0  0
 28 29  1  0  0  0  0
 28 35  1  0  0  0  0
 28 36  1  0  0  0  0
 29 30  1  0  0  0  0
 29 34  1  1  0  0  0
 30 31  1  0  0  0  0
 30 32  1  0  0  0  0
 30 33  1  0  0  0  0
 37 38  2  0  0  0  0
 37 43  1  0  0  0  0
 38 39  1  0  0  0  0
 38 48  1  0  0  0  0
 39 40  1  0  0  0  0
 39 41  2  0  0  0  0
 41 42  1  0  0  0  0
 41 47  1  0  0  0  0
 42 43  2  0  0  0  0
 42 46  1  0  0  0  0
 43 44  1  0  0  0  0
 44 45  2  0  0  0  0
M  END
>  <MODEL>
       2

$$$$
best_conformers_44.pdb
 OpenBabel02042510453D

 56 60  0  0  1  0  0  0  0  0999 V2000
    5.5160    0.2470   29.5250 C   0  0  0  0  0  0  0  0  0  0  0  0
    5.9050   -0.8300   28.6280 N   0  0  0  0  0  0  0  0  0  0  0  0
    5.4120   -0.8540   27.3650 C   0  0  0  0  0  0  0  0  0  0  0  0
    4.5630   -0.0590   26.9820 O   0  0  0  0  0  0  0  0  0  0  0  0
    5.9370   -1.9700   26.4490 C   0  0  0  0  0  0  0  0  0  0  0  0
    6.9350   -1.5340   25.4870 N   0  0  0  0  0  0  0  0  0  0  0  0
    6.5240   -0.8130   24.2950 C   0  0  0  0  0  0  0  0  0  0  0  0
    7.4760   -1.0800   23.0990 C   0  0  2  0  0  0  0  0  0  0  0  0
    7.0980   -0.0920   21.9790 C   0  0  0  0  0  0  0  0  0  0  0  0
    7.2870    1.1060   21.9690 O   0  0  0  0  0  0  0  0  0  0  0  0
    6.4550   -0.7910   20.9790 N   0  0  0  0  0  0  0  0  0  0  0  0
    5.8490   -0.1510   19.8660 C   0  0  0  0  0  0  0  0  0  0  0  0
    6.2590   -0.4560   18.5920 C   0  0  0  0  0  0  0  0  0  0  0  0
    5.7700    0.1160   17.4630 N   0  0  0  0  0  0  0  0  0  0  0  0
    4.8070    0.9970   17.6080 C   0  0  0  0  0  0  0  0  0  0  0  0
    4.2400    1.3660   18.8610 C   0  0  0  0  0  0  0  0  0  0  0  0
    3.1780    2.3100   18.9540 C   0  0  0  0  0  0  0  0  0  0  0  0
    2.6290    2.6220   20.1680 C   0  0  0  0  0  0  0  0  0  0  0  0
    3.1130    1.9980   21.3410 C   0  0  0  0  0  0  0  0  0  0  0  0
    4.1400    1.0910   21.2740 C   0  0  0  0  0  0  0  0  0  0  0  0
    4.7550    0.7660   20.0320 C   0  0  0  0  0  0  0  0  0  0  0  0
    4.5010    0.6220   22.1830 H   0  0  0  0  0  0  0  0  0  0  0  0
    2.6750    2.2500   22.3020 H   0  0  0  0  0  0  0  0  0  0  0  0
    1.8250    3.3510   20.2390 H   0  0  0  0  0  0  0  0  0  0  0  0
    2.8190    2.7780   18.0400 H   0  0  0  0  0  0  0  0  0  0  0  0
    4.4200    1.4600   16.7000 H   0  0  0  0  0  0  0  0  0  0  0  0
    7.0430   -1.1940   18.4300 H   0  0  0  0  0  0  0  0  0  0  0  0
    6.2950   -2.2070   21.2550 C   0  0  0  0  0  0  0  0  0  0  0  0
    7.2770   -2.4730   22.4060 C   0  0  2  0  0  0  0  0  0  0  0  0
    6.8470   -3.6170   23.3220 C   0  0  0  0  0  0  0  0  0  0  0  0
    6.8510   -5.1910   22.4540 Cl  0  0  0  0  0  0  0  0  0  0  0  0
    7.5250   -3.7240   24.1690 H   0  0  0  0  0  0  0  0  0  0  0  0
    5.8320   -3.4720   23.7010 H   0  0  0  0  0  0  0  0  0  0  0  0
    8.2570   -2.7410   21.9910 H   0  0  0  0  0  0  0  0  0  0  0  0
    6.5260   -2.7900   20.3660 H   0  0  0  0  0  0  0  0  0  0  0  0
    5.2600   -2.4520   21.5390 H   0  0  0  0  0  0  0  0  0  0  0  0
    8.9060   -0.8890   23.5710 C   0  0  0  0  0  0  0  0  0  0  0  0
    9.9200   -0.6210   22.6420 C   0  0  0  0  0  0  0  0  0  0  0  0
   11.2320   -0.5000   23.0680 C   0  0  0  0  0  0  0  0  0  0  0  0
   12.4820   -0.1300   21.9180 Cl  0  0  0  0  0  0  0  0  0  0  0  0
   11.5800   -0.6680   24.4070 C   0  0  0  0  0  0  0  0  0  0  0  0
   10.5840   -0.9700   25.3190 C   0  0  0  0  0  0  0  0  0  0  0  0
    9.2560   -1.0880   24.9090 C   0  0  0  0  0  0  0  0  0  0  0  0
    8.2340   -1.5340   25.9000 C   0  0  0  0  0  0  0  0  0  0  0  0
    8.5360   -1.9310   27.0140 O   0  0  0  0  0  0  0  0  0  0  0  0
   10.8170   -1.1520   26.3610 H   0  0  0  0  0  0  0  0  0  0  0  0
   12.6200   -0.5780   24.7050 H   0  0  0  0  0  0  0  0  0  0  0  0
    9.6850   -0.4860   21.5920 H   0  0  0  0  0  0  0  0  0  0  0  0
    6.5300    0.2730   24.4780 H   0  0  0  0  0  0  0  0  0  0  0  0
    5.4960   -1.1190   24.0520 H   0  0  0  0  0  0  0  0  0  0  0  0
    5.0600   -2.3200   25.8980 H   0  0  0  0  0  0  0  0  0  0  0  0
    6.3610   -2.8030   27.0210 H   0  0  0  0  0  0  0  0  0  0  0  0
    6.6530   -1.4650   28.8750 H   0  0  0  0  0  0  0  0  0  0  0  0
    4.4330    0.2340   29.7180 H   0  0  0  0  0  0  0  0  0  0  0  0
    5.7540    1.2310   29.0920 H   0  0  0  0  0  0  0  0  0  0  0  0
    6.0570    0.1220   30.4660 H   0  0  0  0  0  0  0  0  0  0  0  0
  1  2  1  0  0  0  0
  1 54  1  0  0  0  0
  1 55  1  0  0  0  0
  1 56  1  0  0  0  0
  2  3  1  0  0  0  0
  2 53  1  0  0  0  0
  3  4  2  0  0  0  0
  3  5  1  0  0  0  0
  5  6  1  0  0  0  0
  5 51  1  0  0  0  0
  5 52  1  0  0  0  0
  6  7  1  0  0  0  0
  6 44  1  0  0  0  0
  7  8  1  0  0  0  0
  7 49  1  0  0  0  0
  7 50  1  0  0  0  0
  8  9  1  6  0  0  0
  8 29  1  0  0  0  0
  8 37  1  0  0  0  0
  9 10  2  0  0  0  0
  9 11  1  0  0  0  0
 11 12  1  0  0  0  0
 11 28  1  0  0  0  0
 12 13  2  0  0  0  0
 12 21  1  0  0  0  0
 13 14  1  0  0  0  0
 13 27  1  0  0  0  0
 14 15  2  0  0  0  0
 15 16  1  0  0  0  0
 15 26  1  0  0  0  0
 16 17  2  0  0  0  0
 16 21  1  0  0  0  0
 17 18  1  0  0  0  0
 17 25  1  0  0  0  0
 18 19  2  0  0  0  0
 18 24  1  0  0  0  0
 19 20  1  0  0  0  0
 19 23  1  0  0  0  0
 20 21  2  0  0  0  0
 20 22  1  0  0  0  0
 28 29  1  0  0  0  0
 28 35  1  0  0  0  0
 28 36  1  0  0  0  0
 29 30  1  0  0  0  0
 29 34  1  6  0  0  0
 30 31  1  0  0  0  0
 30 32  1  0  0  0  0
 30 33  1  0  0  0  0
 37 38  2  0  0  0  0
 37 43  1  0  0  0  0
 38 39  1  0  0  0  0
 38 48  1  0  0  0  0
 39 40  1  0  0  0  0
 39 41  2  0  0  0  0
 41 42  1  0  0  0  0
 41 47  1  0  0  0  0
 42 43  2  0  0  0  0
 42 46  1  0  0  0  0
 43 44  1  0  0  0  0
 44 45  2  0  0  0  0
M  END
>  <MODEL>
       3

$$$$
best_conformers_44.pdb
 OpenBabel02042510453D

 56 60  0  0  1  0  0  0  0  0999 V2000
    7.1130   -8.6140   22.8980 C   0  0  0  0  0  0  0  0  0  0  0  0
    6.1350   -7.5910   22.6180 N   0  0  0  0  0  0  0  0  0  0  0  0
    6.3790   -6.6390   21.6920 C   0  0  0  0  0  0  0  0  0  0  0  0
    7.4300   -6.5660   21.0710 O   0  0  0  0  0  0  0  0  0  0  0  0
    5.2620   -5.6080   21.6310 C   0  0  0  0  0  0  0  0  0  0  0  0
    5.5430   -4.5700   22.5940 N   0  0  0  0  0  0  0  0  0  0  0  0
    6.7630   -3.8130   22.3820 C   0  0  0  0  0  0  0  0  0  0  0  0
    6.5490   -2.3480   22.7750 C   0  0  2  0  0  0  0  0  0  0  0  0
    5.6240   -1.7290   21.7080 C   0  0  0  0  0  0  0  0  0  0  0  0
    4.4810   -2.0450   21.4640 O   0  0  0  0  0  0  0  0  0  0  0  0
    6.3390   -0.7910   20.9920 N   0  0  0  0  0  0  0  0  0  0  0  0
    5.7920   -0.1700   19.8580 C   0  0  0  0  0  0  0  0  0  0  0  0
    6.2760   -0.4450   18.6050 C   0  0  0  0  0  0  0  0  0  0  0  0
    5.8060    0.1190   17.4670 N   0  0  0  0  0  0  0  0  0  0  0  0
    4.8230    0.9810   17.6010 C   0  0  0  0  0  0  0  0  0  0  0  0
    4.2430    1.3550   18.8480 C   0  0  0  0  0  0  0  0  0  0  0  0
    3.1980    2.3100   18.9380 C   0  0  0  0  0  0  0  0  0  0  0  0
    2.6830    2.6630   20.1560 C   0  0  0  0  0  0  0  0  0  0  0  0
    3.1880    2.0910   21.3460 C   0  0  0  0  0  0  0  0  0  0  0  0
    4.2000    1.1690   21.2880 C   0  0  0  0  0  0  0  0  0  0  0  0
    4.7380    0.7710   20.0280 C   0  0  0  0  0  0  0  0  0  0  0  0
    4.5910    0.7350   22.2040 H   0  0  0  0  0  0  0  0  0  0  0  0
    2.7780    2.3920   22.3060 H   0  0  0  0  0  0  0  0  0  0  0  0
    1.8880    3.3990   20.2170 H   0  0  0  0  0  0  0  0  0  0  0  0
    2.8320    2.7570   18.0190 H   0  0  0  0  0  0  0  0  0  0  0  0
    4.4350    1.4380   16.6920 H   0  0  0  0  0  0  0  0  0  0  0  0
    7.0740   -1.1780   18.4820 H   0  0  0  0  0  0  0  0  0  0  0  0
    7.7600   -0.8160   21.2520 C   0  0  0  0  0  0  0  0  0  0  0  0
    7.8340   -1.4730   22.6340 C   0  0  2  0  0  0  0  0  0  0  0  0
    9.1900   -2.1060   22.9260 C   0  0  0  0  0  0  0  0  0  0  0  0
    9.8810   -2.9970   21.5370 Cl  0  0  0  0  0  0  0  0  0  0  0  0
    9.1350   -2.8220   23.7490 H   0  0  0  0  0  0  0  0  0  0  0  0
    9.9220   -1.3330   23.1660 H   0  0  0  0  0  0  0  0  0  0  0  0
    7.7220   -0.6760   23.3700 H   0  0  0  0  0  0  0  0  0  0  0  0
    8.1670    0.2010   21.2500 H   0  0  0  0  0  0  0  0  0  0  0  0
    8.3050   -1.3980   20.5020 H   0  0  0  0  0  0  0  0  0  0  0  0
    5.9030   -2.3310   24.1500 C   0  0  0  0  0  0  0  0  0  0  0  0
    5.8990   -1.1610   24.9110 C   0  0  0  0  0  0  0  0  0  0  0  0
    5.3170   -1.1480   26.1630 C   0  0  0  0  0  0  0  0  0  0  0  0
    5.3130    0.3450   27.0520 Cl  0  0  0  0  0  0  0  0  0  0  0  0
    4.7340   -2.2840   26.7240 C   0  0  0  0  0  0  0  0  0  0  0  0
    4.6990   -3.4350   25.9630 C   0  0  0  0  0  0  0  0  0  0  0  0
    5.2330   -3.4450   24.6780 C   0  0  0  0  0  0  0  0  0  0  0  0
    4.9950   -4.6560   23.8400 C   0  0  0  0  0  0  0  0  0  0  0  0
    4.3420   -5.6260   24.2140 O   0  0  0  0  0  0  0  0  0  0  0  0
    4.2400   -4.3500   26.3200 H   0  0  0  0  0  0  0  0  0  0  0  0
    4.2990   -2.2440   27.7170 H   0  0  0  0  0  0  0  0  0  0  0  0
    6.3310   -0.2430   24.5300 H   0  0  0  0  0  0  0  0  0  0  0  0
    7.0080   -3.8810   21.3250 H   0  0  0  0  0  0  0  0  0  0  0  0
    7.5920   -4.2540   22.9540 H   0  0  0  0  0  0  0  0  0  0  0  0
    4.3200   -6.0760   21.9160 H   0  0  0  0  0  0  0  0  0  0  0  0
    5.1810   -5.1370   20.6510 H   0  0  0  0  0  0  0  0  0  0  0  0
    5.2410   -7.6080   23.0790 H   0  0  0  0  0  0  0  0  0  0  0  0
    8.0910   -8.1520   23.0890 H   0  0  0  0  0  0  0  0  0  0  0  0
    7.1780   -9.2930   22.0530 H   0  0  0  0  0  0  0  0  0  0  0  0
    6.7980   -9.2180   23.7560 H   0  0  0  0  0  0  0  0  0  0  0  0
  1  2  1  0  0  0  0
  1 54  1  0  0  0  0
  1 55  1  0  0  0  0
  1 56  1  0  0  0  0
  2  3  1  0  0  0  0
  2 53  1  0  0  0  0
  3  4  2  0  0  0  0
  3  5  1  0  0  0  0
  5  6  1  0  0  0  0
  5 51  1  0  0  0  0
  5 52  1  0  0  0  0
  6  7  1  0  0  0  0
  6 44  1  0  0  0  0
  7  8  1  0  0  0  0
  7 49  1  0  0  0  0
  7 50  1  0  0  0  0
  8  9  1  6  0  0  0
  8 29  1  0  0  0  0
  8 37  1  0  0  0  0
  9 10  2  0  0  0  0
  9 11  1  0  0  0  0
 11 12  1  0  0  0  0
 11 28  1  0  0  0  0
 12 13  2  0  0  0  0
 12 21  1  0  0  0  0
 13 14  1  0  0  0  0
 13 27  1  0  0  0  0
 14 15  2  0  0  0  0
 15 16  1  0  0  0  0
 15 26  1  0  0  0  0
 16 17  2  0  0  0  0
 16 21  1  0  0  0  0
 17 18  1  0  0  0  0
 17 25  1  0  0  0  0
 18 19  2  0  0  0  0
 18 24  1  0  0  0  0
 19 20  1  0  0  0  0
 19 23  1  0  0  0  0
 20 21  2  0  0  0  0
 20 22  1  0  0  0  0
 28 29  1  0  0  0  0
 28 35  1  0  0  0  0
 28 36  1  0  0  0  0
 29 30  1  0  0  0  0
 29 34  1  1  0  0  0
 30 31  1  0  0  0  0
 30 32  1  0  0  0  0
 30 33  1  0  0  0  0
 37 38  2  0  0  0  0
 37 43  1  0  0  0  0
 38 39  1  0  0  0  0
 38 48  1  0  0  0  0
 39 40  1  0  0  0  0
 39 41  2  0  0  0  0
 41 42  1  0  0  0  0
 41 47  1  0  0  0  0
 42 43  2  0  0  0  0
 42 46  1  0  0  0  0
 43 44  1  0  0  0  0
 44 45  2  0  0  0  0
M  END
>  <MODEL>
       4

$$$$
