best_conformers_49.pdb
 OpenBabel02042510453D

 42 45  0  0  1  0  0  0  0  0999 V2000
    5.3180   -1.5090   24.7280 C   0  0  0  0  0  0  0  0  0  0  0  0
    6.6130   -1.7070   24.1050 N   0  0  0  0  0  0  0  0  0  0  0  0
    6.9120   -2.9460   23.4080 C   0  0  0  0  0  0  0  0  0  0  0  0
    7.6490   -2.6380   22.0990 C   0  0  1  0  0  0  0  0  0  0  0  0
    6.6340   -2.1100   21.0660 C   0  0  0  0  0  0  0  0  0  0  0  0
    5.9780   -2.8920   20.3970 O   0  0  0  0  0  0  0  0  0  0  0  0
    6.4650   -0.7480   20.9710 N   0  0  0  0  0  0  0  0  0  0  0  0
    5.8400   -0.1510   19.8550 C   0  0  0  0  0  0  0  0  0  0  0  0
    6.2560   -0.4550   18.5820 C   0  0  0  0  0  0  0  0  0  0  0  0
    5.7730    0.1260   17.4520 N   0  0  0  0  0  0  0  0  0  0  0  0
    4.8080    1.0010   17.6030 C   0  0  0  0  0  0  0  0  0  0  0  0
    4.2380    1.3700   18.8510 C   0  0  0  0  0  0  0  0  0  0  0  0
    3.1820    2.3140   18.9550 C   0  0  0  0  0  0  0  0  0  0  0  0
    2.6520    2.6310   20.1730 C   0  0  0  0  0  0  0  0  0  0  0  0
    3.1480    2.0180   21.3480 C   0  0  0  0  0  0  0  0  0  0  0  0
    4.1740    1.1070   21.2740 C   0  0  0  0  0  0  0  0  0  0  0  0
    4.7570    0.7710   20.0260 C   0  0  0  0  0  0  0  0  0  0  0  0
    4.5400    0.6320   22.1820 H   0  0  0  0  0  0  0  0  0  0  0  0
    2.7150    2.2780   22.3100 H   0  0  0  0  0  0  0  0  0  0  0  0
    1.8470    3.3590   20.2490 H   0  0  0  0  0  0  0  0  0  0  0  0
    2.8170    2.7790   18.0400 H   0  0  0  0  0  0  0  0  0  0  0  0
    4.4150    1.4590   16.6950 H   0  0  0  0  0  0  0  0  0  0  0  0
    7.0460   -1.1840   18.4240 H   0  0  0  0  0  0  0  0  0  0  0  0
    6.7140   -0.1470   21.7550 H   0  0  0  0  0  0  0  0  0  0  0  0
    8.8310   -1.7500   22.3860 C   0  0  0  0  0  0  0  0  0  0  0  0
    9.9870   -1.8440   21.6060 C   0  0  0  0  0  0  0  0  0  0  0  0
   11.0810   -1.0380   21.8900 C   0  0  0  0  0  0  0  0  0  0  0  0
   12.5880   -1.3080   21.0520 Cl  0  0  0  0  0  0  0  0  0  0  0  0
   11.0150   -0.0620   22.8850 C   0  0  0  0  0  0  0  0  0  0  0  0
    9.8810    0.0040   23.6820 C   0  0  0  0  0  0  0  0  0  0  0  0
    8.8050   -0.8600   23.4610 C   0  0  0  0  0  0  0  0  0  0  0  0
    7.5880   -0.7720   24.3460 C   0  0  0  0  0  0  0  0  0  0  0  0
    7.4510    0.0980   25.1920 O   0  0  0  0  0  0  0  0  0  0  0  0
    9.8080    0.7130   24.5030 H   0  0  0  0  0  0  0  0  0  0  0  0
   11.8490    0.6150   23.0420 H   0  0  0  0  0  0  0  0  0  0  0  0
   10.0420   -2.5470   20.7820 H   0  0  0  0  0  0  0  0  0  0  0  0
    8.0020   -3.5740   21.6600 H   0  0  0  0  0  0  0  0  0  0  0  0
    5.9680   -3.4480   23.1660 H   0  0  0  0  0  0  0  0  0  0  0  0
    7.5150   -3.6190   24.0390 H   0  0  0  0  0  0  0  0  0  0  0  0
    4.8600   -0.5810   24.3590 H   0  0  0  0  0  0  0  0  0  0  0  0
    4.6790   -2.3570   24.4620 H   0  0  0  0  0  0  0  0  0  0  0  0
    5.4100   -1.4340   25.8160 H   0  0  0  0  0  0  0  0  0  0  0  0
  1  2  1  0  0  0  0
  1 40  1  0  0  0  0
  1 41  1  0  0  0  0
  1 42  1  0  0  0  0
  2  3  1  0  0  0  0
  2 32  1  0  0  0  0
  3  4  1  0  0  0  0
  3 38  1  0  0  0  0
  3 39  1  0  0  0  0
  4  5  1  0  0  0  0
  4 25  1  0  0  0  0
  4 37  1  6  0  0  0
  5  6  2  0  0  0  0
  5  7  1  0  0  0  0
  7  8  1  0  0  0  0
  7 24  1  0  0  0  0
  8  9  2  0  0  0  0
  8 17  1  0  0  0  0
  9 10  1  0  0  0  0
  9 23  1  0  0  0  0
 10 11  2  0  0  0  0
 11 12  1  0  0  0  0
 11 22  1  0  0  0  0
 12 13  2  0  0  0  0
 12 17  1  0  0  0  0
 13 14  1  0  0  0  0
 13 21  1  0  0  0  0
 14 15  2  0  0  0  0
 14 20  1  0  0  0  0
 15 16  1  0  0  0  0
 15 19  1  0  0  0  0
 16 17  2  0  0  0  0
 16 18  1  0  0  0  0
 25 26  2  0  0  0  0
 25 31  1  0  0  0  0
 26 27  1  0  0  0  0
 26 36  1  0  0  0  0
 27 28  1  0  0  0  0
 27 29  2  0  0  0  0
 29 30  1  0  0  0  0
 29 35  1  0  0  0  0
 30 31  2  0  0  0  0
 30 34  1  0  0  0  0
 31 32  1  0  0  0  0
 32 33  2  0  0  0  0
M  END
>  <MODEL>
       1

$$$$
