best_conformers_60.pdb
 OpenBabel02042510453D

 38 41  0  0  0  0  0  0  0  0999 V2000
    4.5050   -2.2510   21.2120 O   0  0  0  0  0  0  0  0  0  0  0  0
    5.6840   -2.1390   21.4860 C   0  0  0  0  0  0  0  0  0  0  0  0
    6.4680   -0.8900   21.0240 C   0  0  0  0  0  0  0  0  0  0  0  0
    5.8130   -0.1760   19.8560 C   0  0  0  0  0  0  0  0  0  0  0  0
    6.2290   -0.4410   18.5750 C   0  0  0  0  0  0  0  0  0  0  0  0
    5.7490    0.1330   17.4380 N   0  0  0  0  0  0  0  0  0  0  0  0
    4.7860    1.0130   17.5810 C   0  0  0  0  0  0  0  0  0  0  0  0
    4.2280    1.3780   18.8380 C   0  0  0  0  0  0  0  0  0  0  0  0
    3.1730    2.3240   18.9390 C   0  0  0  0  0  0  0  0  0  0  0  0
    2.6390    2.6400   20.1600 C   0  0  0  0  0  0  0  0  0  0  0  0
    3.1380    2.0220   21.3280 C   0  0  0  0  0  0  0  0  0  0  0  0
    4.1630    1.1090   21.2570 C   0  0  0  0  0  0  0  0  0  0  0  0
    4.7440    0.7650   20.0080 C   0  0  0  0  0  0  0  0  0  0  0  0
    4.5250    0.6300   22.1610 H   0  0  0  0  0  0  0  0  0  0  0  0
    2.7080    2.2770   22.2900 H   0  0  0  0  0  0  0  0  0  0  0  0
    1.8320    3.3640   20.2390 H   0  0  0  0  0  0  0  0  0  0  0  0
    2.7970    2.7920   18.0300 H   0  0  0  0  0  0  0  0  0  0  0  0
    4.3970    1.4900   16.6780 H   0  0  0  0  0  0  0  0  0  0  0  0
    7.0130   -1.1780   18.4030 H   0  0  0  0  0  0  0  0  0  0  0  0
    7.4850   -1.1930   20.7360 H   0  0  0  0  0  0  0  0  0  0  0  0
    6.5800   -0.2090   21.8780 H   0  0  0  0  0  0  0  0  0  0  0  0
    6.3180   -3.1490   22.1730 N   0  0  0  0  0  0  0  0  0  0  0  0
    7.6310   -3.0070   22.7810 C   0  0  0  0  0  0  0  0  0  0  0  0
    7.7480   -3.7960   24.0830 C   0  0  0  0  0  0  0  0  0  0  0  0
    7.2750   -5.1990   23.8740 C   0  0  0  0  0  0  0  0  0  0  0  0
    7.7750   -6.5770   24.7890 S   0  0  0  0  0  0  0  0  0  0  0  0
    6.6960   -7.5990   23.9130 C   0  0  0  0  0  0  0  0  0  0  0  0
    6.0000   -6.9110   22.9640 C   0  0  0  0  0  0  0  0  0  0  0  0
    6.3410   -5.5210   22.9430 C   0  0  0  0  0  0  0  0  0  0  0  0
    5.7140   -4.4830   22.0550 C   0  0  0  0  0  0  0  0  0  0  0  0
    5.7610   -4.8470   21.0190 H   0  0  0  0  0  0  0  0  0  0  0  0
    4.6410   -4.4250   22.2760 H   0  0  0  0  0  0  0  0  0  0  0  0
    5.2610   -7.3740   22.3160 H   0  0  0  0  0  0  0  0  0  0  0  0
    6.6310   -8.6520   24.1530 H   0  0  0  0  0  0  0  0  0  0  0  0
    7.1360   -3.3230   24.8600 H   0  0  0  0  0  0  0  0  0  0  0  0
    8.7780   -3.7730   24.4430 H   0  0  0  0  0  0  0  0  0  0  0  0
    8.4120   -3.3420   22.0880 H   0  0  0  0  0  0  0  0  0  0  0  0
    7.8060   -1.9500   22.9910 H   0  0  0  0  0  0  0  0  0  0  0  0
  1  2  2  0  0  0  0
  2  3  1  0  0  0  0
  2 22  1  0  0  0  0
  3  4  1  0  0  0  0
  3 20  1  0  0  0  0
  3 21  1  0  0  0  0
  4  5  2  0  0  0  0
  4 13  1  0  0  0  0
  5  6  1  0  0  0  0
  5 19  1  0  0  0  0
  6  7  2  0  0  0  0
  7  8  1  0  0  0  0
  7 18  1  0  0  0  0
  8  9  2  0  0  0  0
  8 13  1  0  0  0  0
  9 10  1  0  0  0  0
  9 17  1  0  0  0  0
 10 11  2  0  0  0  0
 10 16  1  0  0  0  0
 11 12  1  0  0  0  0
 11 15  1  0  0  0  0
 12 13  2  0  0  0  0
 12 14  1  0  0  0  0
 22 23  1  0  0  0  0
 22 30  1  0  0  0  0
 23 24  1  0  0  0  0
 23 37  1  0  0  0  0
 23 38  1  0  0  0  0
 24 25  1  0  0  0  0
 24 35  1  0  0  0  0
 24 36  1  0  0  0  0
 25 26  1  0  0  0  0
 25 29  2  0  0  0  0
 26 27  1  0  0  0  0
 27 28  2  0  0  0  0
 27 34  1  0  0  0  0
 28 29  1  0  0  0  0
 28 33  1  0  0  0  0
 29 30  1  0  0  0  0
 30 31  1  0  0  0  0
 30 32  1  0  0  0  0
M  END
>  <MODEL>
       1

$$$$
best_conformers_60.pdb
 OpenBabel02042510453D

 38 41  0  0  0  0  0  0  0  0999 V2000
    7.4890    1.2540   21.6320 O   0  0  0  0  0  0  0  0  0  0  0  0
    7.5760    0.0410   21.6790 C   0  0  0  0  0  0  0  0  0  0  0  0
    6.5000   -0.8530   21.0260 C   0  0  0  0  0  0  0  0  0  0  0  0
    5.8080   -0.1800   19.8540 C   0  0  0  0  0  0  0  0  0  0  0  0
    6.2330   -0.4380   18.5750 C   0  0  0  0  0  0  0  0  0  0  0  0
    5.7550    0.1380   17.4390 N   0  0  0  0  0  0  0  0  0  0  0  0
    4.7850    1.0120   17.5820 C   0  0  0  0  0  0  0  0  0  0  0  0
    4.2300    1.3800   18.8390 C   0  0  0  0  0  0  0  0  0  0  0  0
    3.1790    2.3300   18.9390 C   0  0  0  0  0  0  0  0  0  0  0  0
    2.6590    2.6640   20.1610 C   0  0  0  0  0  0  0  0  0  0  0  0
    3.1730    2.0620   21.3320 C   0  0  0  0  0  0  0  0  0  0  0  0
    4.1920    1.1420   21.2610 C   0  0  0  0  0  0  0  0  0  0  0  0
    4.7540    0.7760   20.0090 C   0  0  0  0  0  0  0  0  0  0  0  0
    4.5930    0.7090   22.1710 H   0  0  0  0  0  0  0  0  0  0  0  0
    2.7630    2.3390   22.2970 H   0  0  0  0  0  0  0  0  0  0  0  0
    1.8580    3.3940   20.2400 H   0  0  0  0  0  0  0  0  0  0  0  0
    2.7990    2.7920   18.0290 H   0  0  0  0  0  0  0  0  0  0  0  0
    4.3970    1.4890   16.6790 H   0  0  0  0  0  0  0  0  0  0  0  0
    7.0230   -1.1680   18.4030 H   0  0  0  0  0  0  0  0  0  0  0  0
    5.7660   -1.1410   21.7890 H   0  0  0  0  0  0  0  0  0  0  0  0
    6.9700   -1.7830   20.6790 H   0  0  0  0  0  0  0  0  0  0  0  0
    8.6720   -0.5820   22.2510 N   0  0  0  0  0  0  0  0  0  0  0  0
    8.6120   -1.8150   23.0270 C   0  0  0  0  0  0  0  0  0  0  0  0
    9.7700   -2.7440   22.6670 C   0  0  0  0  0  0  0  0  0  0  0  0
   11.0550   -1.9720   22.6640 C   0  0  0  0  0  0  0  0  0  0  0  0
   12.6340   -2.6730   22.7890 S   0  0  0  0  0  0  0  0  0  0  0  0
   13.3830   -1.1350   22.6140 C   0  0  0  0  0  0  0  0  0  0  0  0
   12.4660   -0.1330   22.5000 C   0  0  0  0  0  0  0  0  0  0  0  0
   11.1200   -0.6210   22.5340 C   0  0  0  0  0  0  0  0  0  0  0  0
    9.8770    0.2240   22.4460 C   0  0  0  0  0  0  0  0  0  0  0  0
    9.8190    0.8740   23.3320 H   0  0  0  0  0  0  0  0  0  0  0  0
    9.9850    0.9130   21.6070 H   0  0  0  0  0  0  0  0  0  0  0  0
   12.7430    0.9130   22.4000 H   0  0  0  0  0  0  0  0  0  0  0  0
   14.4610   -1.0650   22.6140 H   0  0  0  0  0  0  0  0  0  0  0  0
    9.5980   -3.1630   21.6700 H   0  0  0  0  0  0  0  0  0  0  0  0
    9.8090   -3.5930   23.3560 H   0  0  0  0  0  0  0  0  0  0  0  0
    8.6520   -1.5960   24.1050 H   0  0  0  0  0  0  0  0  0  0  0  0
    7.6550   -2.3060   22.8510 H   0  0  0  0  0  0  0  0  0  0  0  0
  1  2  2  0  0  0  0
  2  3  1  0  0  0  0
  2 22  1  0  0  0  0
  3  4  1  0  0  0  0
  3 20  1  0  0  0  0
  3 21  1  0  0  0  0
  4  5  2  0  0  0  0
  4 13  1  0  0  0  0
  5  6  1  0  0  0  0
  5 19  1  0  0  0  0
  6  7  2  0  0  0  0
  7  8  1  0  0  0  0
  7 18  1  0  0  0  0
  8  9  2  0  0  0  0
  8 13  1  0  0  0  0
  9 10  1  0  0  0  0
  9 17  1  0  0  0  0
 10 11  2  0  0  0  0
 10 16  1  0  0  0  0
 11 12  1  0  0  0  0
 11 15  1  0  0  0  0
 12 13  2  0  0  0  0
 12 14  1  0  0  0  0
 22 23  1  0  0  0  0
 22 30  1  0  0  0  0
 23 24  1  0  0  0  0
 23 37  1  0  0  0  0
 23 38  1  0  0  0  0
 24 25  1  0  0  0  0
 24 35  1  0  0  0  0
 24 36  1  0  0  0  0
 25 26  1  0  0  0  0
 25 29  2  0  0  0  0
 26 27  1  0  0  0  0
 27 28  2  0  0  0  0
 27 34  1  0  0  0  0
 28 29  1  0  0  0  0
 28 33  1  0  0  0  0
 29 30  1  0  0  0  0
 30 31  1  0  0  0  0
 30 32  1  0  0  0  0
M  END
>  <MODEL>
       2

$$$$
best_conformers_60.pdb
 OpenBabel02042510453D

 38 41  0  0  0  0  0  0  0  0999 V2000
    5.1620   -2.7400   20.5100 O   0  0  0  0  0  0  0  0  0  0  0  0
    5.6440   -2.0330   21.3820 C   0  0  0  0  0  0  0  0  0  0  0  0
    6.4480   -0.7860   21.0050 C   0  0  0  0  0  0  0  0  0  0  0  0
    5.8330   -0.1110   19.8220 C   0  0  0  0  0  0  0  0  0  0  0  0
    6.2750   -0.4020   18.5590 C   0  0  0  0  0  0  0  0  0  0  0  0
    5.7840    0.1380   17.4150 N   0  0  0  0  0  0  0  0  0  0  0  0
    4.7970    0.9950   17.5490 C   0  0  0  0  0  0  0  0  0  0  0  0
    4.2210    1.3690   18.7960 C   0  0  0  0  0  0  0  0  0  0  0  0
    3.1670    2.3140   18.8920 C   0  0  0  0  0  0  0  0  0  0  0  0
    2.6330    2.6420   20.1090 C   0  0  0  0  0  0  0  0  0  0  0  0
    3.1190    2.0320   21.2880 C   0  0  0  0  0  0  0  0  0  0  0  0
    4.1420    1.1180   21.2250 C   0  0  0  0  0  0  0  0  0  0  0  0
    4.7340    0.7810   19.9750 C   0  0  0  0  0  0  0  0  0  0  0  0
    4.5000    0.6670   22.1470 H   0  0  0  0  0  0  0  0  0  0  0  0
    2.6910    2.3070   22.2500 H   0  0  0  0  0  0  0  0  0  0  0  0
    1.8370    3.3790   20.1830 H   0  0  0  0  0  0  0  0  0  0  0  0
    2.8080    2.7870   17.9830 H   0  0  0  0  0  0  0  0  0  0  0  0
    4.4100    1.4540   16.6390 H   0  0  0  0  0  0  0  0  0  0  0  0
    7.0830   -1.1230   18.4260 H   0  0  0  0  0  0  0  0  0  0  0  0
    6.5630   -0.1000   21.8470 H   0  0  0  0  0  0  0  0  0  0  0  0
    7.4620   -1.1230   20.7400 H   0  0  0  0  0  0  0  0  0  0  0  0
    5.5730   -2.3800   22.7070 N   0  0  0  0  0  0  0  0  0  0  0  0
    5.6880   -1.5260   23.8850 C   0  0  0  0  0  0  0  0  0  0  0  0
    6.8730   -1.9340   24.7660 C   0  0  0  0  0  0  0  0  0  0  0  0
    7.0300   -3.4350   24.7360 C   0  0  0  0  0  0  0  0  0  0  0  0
    8.2040   -4.2820   25.6910 S   0  0  0  0  0  0  0  0  0  0  0  0
    7.7530   -5.7970   24.9970 C   0  0  0  0  0  0  0  0  0  0  0  0
    6.7190   -5.6620   24.1250 C   0  0  0  0  0  0  0  0  0  0  0  0
    6.3080   -4.3000   23.9730 C   0  0  0  0  0  0  0  0  0  0  0  0
    5.2780   -3.7780   23.0060 C   0  0  0  0  0  0  0  0  0  0  0  0
    4.2460   -3.8810   23.3800 H   0  0  0  0  0  0  0  0  0  0  0  0
    5.3310   -4.3210   22.0590 H   0  0  0  0  0  0  0  0  0  0  0  0
    6.2720   -6.5000   23.5990 H   0  0  0  0  0  0  0  0  0  0  0  0
    8.2900   -6.7040   25.2480 H   0  0  0  0  0  0  0  0  0  0  0  0
    7.7820   -1.4300   24.4150 H   0  0  0  0  0  0  0  0  0  0  0  0
    6.7060   -1.5830   25.7920 H   0  0  0  0  0  0  0  0  0  0  0  0
    4.7670   -1.6580   24.4670 H   0  0  0  0  0  0  0  0  0  0  0  0
    5.7520   -0.4640   23.6160 H   0  0  0  0  0  0  0  0  0  0  0  0
  1  2  2  0  0  0  0
  2  3  1  0  0  0  0
  2 22  1  0  0  0  0
  3  4  1  0  0  0  0
  3 20  1  0  0  0  0
  3 21  1  0  0  0  0
  4  5  2  0  0  0  0
  4 13  1  0  0  0  0
  5  6  1  0  0  0  0
  5 19  1  0  0  0  0
  6  7  2  0  0  0  0
  7  8  1  0  0  0  0
  7 18  1  0  0  0  0
  8  9  2  0  0  0  0
  8 13  1  0  0  0  0
  9 10  1  0  0  0  0
  9 17  1  0  0  0  0
 10 11  2  0  0  0  0
 10 16  1  0  0  0  0
 11 12  1  0  0  0  0
 11 15  1  0  0  0  0
 12 13  2  0  0  0  0
 12 14  1  0  0  0  0
 22 23  1  0  0  0  0
 22 30  1  0  0  0  0
 23 24  1  0  0  0  0
 23 37  1  0  0  0  0
 23 38  1  0  0  0  0
 24 25  1  0  0  0  0
 24 35  1  0  0  0  0
 24 36  1  0  0  0  0
 25 26  1  0  0  0  0
 25 29  2  0  0  0  0
 26 27  1  0  0  0  0
 27 28  2  0  0  0  0
 27 34  1  0  0  0  0
 28 29  1  0  0  0  0
 28 33  1  0  0  0  0
 29 30  1  0  0  0  0
 30 31  1  0  0  0  0
 30 32  1  0  0  0  0
M  END
>  <MODEL>
       3

$$$$
best_conformers_60.pdb
 OpenBabel02042510453D

 38 41  0  0  0  0  0  0  0  0999 V2000
    7.5050    1.2640   21.5620 O   0  0  0  0  0  0  0  0  0  0  0  0
    7.5470    0.0600   21.7330 C   0  0  0  0  0  0  0  0  0  0  0  0
    6.4990   -0.8500   21.0320 C   0  0  0  0  0  0  0  0  0  0  0  0
    5.8130   -0.1780   19.8560 C   0  0  0  0  0  0  0  0  0  0  0  0
    6.2320   -0.4380   18.5750 C   0  0  0  0  0  0  0  0  0  0  0  0
    5.7540    0.1370   17.4380 N   0  0  0  0  0  0  0  0  0  0  0  0
    4.7850    1.0120   17.5820 C   0  0  0  0  0  0  0  0  0  0  0  0
    4.2300    1.3800   18.8390 C   0  0  0  0  0  0  0  0  0  0  0  0
    3.1790    2.3300   18.9390 C   0  0  0  0  0  0  0  0  0  0  0  0
    2.6600    2.6640   20.1620 C   0  0  0  0  0  0  0  0  0  0  0  0
    3.1740    2.0620   21.3320 C   0  0  0  0  0  0  0  0  0  0  0  0
    4.1920    1.1420   21.2610 C   0  0  0  0  0  0  0  0  0  0  0  0
    4.7540    0.7760   20.0090 C   0  0  0  0  0  0  0  0  0  0  0  0
    4.5920    0.7060   22.1710 H   0  0  0  0  0  0  0  0  0  0  0  0
    2.7630    2.3380   22.2970 H   0  0  0  0  0  0  0  0  0  0  0  0
    1.8590    3.3940   20.2420 H   0  0  0  0  0  0  0  0  0  0  0  0
    2.7980    2.7920   18.0300 H   0  0  0  0  0  0  0  0  0  0  0  0
    4.3960    1.4900   16.6790 H   0  0  0  0  0  0  0  0  0  0  0  0
    7.0220   -1.1680   18.4020 H   0  0  0  0  0  0  0  0  0  0  0  0
    5.7490   -1.1650   21.7690 H   0  0  0  0  0  0  0  0  0  0  0  0
    6.9850   -1.7700   20.6760 H   0  0  0  0  0  0  0  0  0  0  0  0
    8.5220   -0.5180   22.5270 N   0  0  0  0  0  0  0  0  0  0  0  0
    9.7770    0.2040   22.7710 C   0  0  0  0  0  0  0  0  0  0  0  0
   10.1680    0.1750   24.2460 C   0  0  0  0  0  0  0  0  0  0  0  0
   10.0660   -1.2220   24.7740 C   0  0  0  0  0  0  0  0  0  0  0  0
   10.8600   -1.8130   26.1940 S   0  0  0  0  0  0  0  0  0  0  0  0
   10.1160   -3.3600   26.0100 C   0  0  0  0  0  0  0  0  0  0  0  0
    9.3070   -3.4100   24.9130 C   0  0  0  0  0  0  0  0  0  0  0  0
    9.2830   -2.1720   24.1990 C   0  0  0  0  0  0  0  0  0  0  0  0
    8.4810   -1.9110   22.9500 C   0  0  0  0  0  0  0  0  0  0  0  0
    7.4470   -2.2020   23.1560 H   0  0  0  0  0  0  0  0  0  0  0  0
    8.8290   -2.5970   22.1620 H   0  0  0  0  0  0  0  0  0  0  0  0
    8.7470   -4.2960   24.6270 H   0  0  0  0  0  0  0  0  0  0  0  0
   10.3150   -4.1480   26.7270 H   0  0  0  0  0  0  0  0  0  0  0  0
    9.4850    0.8200   24.8100 H   0  0  0  0  0  0  0  0  0  0  0  0
   11.1750    0.5820   24.3880 H   0  0  0  0  0  0  0  0  0  0  0  0
   10.5890   -0.2430   22.1800 H   0  0  0  0  0  0  0  0  0  0  0  0
    9.6600    1.2330   22.4300 H   0  0  0  0  0  0  0  0  0  0  0  0
  1  2  2  0  0  0  0
  2  3  1  0  0  0  0
  2 22  1  0  0  0  0
  3  4  1  0  0  0  0
  3 20  1  0  0  0  0
  3 21  1  0  0  0  0
  4  5  2  0  0  0  0
  4 13  1  0  0  0  0
  5  6  1  0  0  0  0
  5 19  1  0  0  0  0
  6  7  2  0  0  0  0
  7  8  1  0  0  0  0
  7 18  1  0  0  0  0
  8  9  2  0  0  0  0
  8 13  1  0  0  0  0
  9 10  1  0  0  0  0
  9 17  1  0  0  0  0
 10 11  2  0  0  0  0
 10 16  1  0  0  0  0
 11 12  1  0  0  0  0
 11 15  1  0  0  0  0
 12 13  2  0  0  0  0
 12 14  1  0  0  0  0
 22 23  1  0  0  0  0
 22 30  1  0  0  0  0
 23 24  1  0  0  0  0
 23 37  1  0  0  0  0
 23 38  1  0  0  0  0
 24 25  1  0  0  0  0
 24 35  1  0  0  0  0
 24 36  1  0  0  0  0
 25 26  1  0  0  0  0
 25 29  2  0  0  0  0
 26 27  1  0  0  0  0
 27 28  2  0  0  0  0
 27 34  1  0  0  0  0
 28 29  1  0  0  0  0
 28 33  1  0  0  0  0
 29 30  1  0  0  0  0
 30 31  1  0  0  0  0
 30 32  1  0  0  0  0
M  END
>  <MODEL>
       4

$$$$
best_conformers_60.pdb
 OpenBabel02042510453D

 38 41  0  0  0  0  0  0  0  0999 V2000
    7.5130    1.2530   21.5700 O   0  0  0  0  0  0  0  0  0  0  0  0
    7.5460    0.0470   21.7280 C   0  0  0  0  0  0  0  0  0  0  0  0
    6.4960   -0.8520   21.0300 C   0  0  0  0  0  0  0  0  0  0  0  0
    5.8120   -0.1760   19.8560 C   0  0  0  0  0  0  0  0  0  0  0  0
    6.2320   -0.4380   18.5750 C   0  0  0  0  0  0  0  0  0  0  0  0
    5.7540    0.1370   17.4380 N   0  0  0  0  0  0  0  0  0  0  0  0
    4.7850    1.0130   17.5820 C   0  0  0  0  0  0  0  0  0  0  0  0
    4.2300    1.3800   18.8390 C   0  0  0  0  0  0  0  0  0  0  0  0
    3.1790    2.3300   18.9390 C   0  0  0  0  0  0  0  0  0  0  0  0
    2.6600    2.6640   20.1620 C   0  0  0  0  0  0  0  0  0  0  0  0
    3.1740    2.0620   21.3320 C   0  0  0  0  0  0  0  0  0  0  0  0
    4.1930    1.1420   21.2610 C   0  0  0  0  0  0  0  0  0  0  0  0
    4.7540    0.7760   20.0090 C   0  0  0  0  0  0  0  0  0  0  0  0
    4.5920    0.7070   22.1710 H   0  0  0  0  0  0  0  0  0  0  0  0
    2.7630    2.3390   22.2970 H   0  0  0  0  0  0  0  0  0  0  0  0
    1.8590    3.3940   20.2410 H   0  0  0  0  0  0  0  0  0  0  0  0
    2.7980    2.7920   18.0300 H   0  0  0  0  0  0  0  0  0  0  0  0
    4.3960    1.4900   16.6790 H   0  0  0  0  0  0  0  0  0  0  0  0
    7.0220   -1.1680   18.4030 H   0  0  0  0  0  0  0  0  0  0  0  0
    5.7500   -1.1650   21.7710 H   0  0  0  0  0  0  0  0  0  0  0  0
    6.9840   -1.7710   20.6760 H   0  0  0  0  0  0  0  0  0  0  0  0
    8.5360   -0.5350   22.5000 N   0  0  0  0  0  0  0  0  0  0  0  0
    8.5170   -1.9270   22.9400 C   0  0  0  0  0  0  0  0  0  0  0  0
    9.1350   -2.1060   24.3290 C   0  0  0  0  0  0  0  0  0  0  0  0
   10.4680   -1.4310   24.3890 C   0  0  0  0  0  0  0  0  0  0  0  0
   11.7700   -1.8510   25.4510 S   0  0  0  0  0  0  0  0  0  0  0  0
   12.7280   -0.5460   24.8490 C   0  0  0  0  0  0  0  0  0  0  0  0
   12.0770    0.1630   23.8830 C   0  0  0  0  0  0  0  0  0  0  0  0
   10.7680   -0.3540   23.6180 C   0  0  0  0  0  0  0  0  0  0  0  0
    9.7780    0.2380   22.6500 C   0  0  0  0  0  0  0  0  0  0  0  0
   10.2830    0.3640   21.6810 H   0  0  0  0  0  0  0  0  0  0  0  0
    9.5360    1.2570   22.9700 H   0  0  0  0  0  0  0  0  0  0  0  0
   12.5070    1.0300   23.3870 H   0  0  0  0  0  0  0  0  0  0  0  0
   13.7210   -0.3770   25.2450 H   0  0  0  0  0  0  0  0  0  0  0  0
    8.4770   -1.6650   25.0870 H   0  0  0  0  0  0  0  0  0  0  0  0
    9.2190   -3.1680   24.5730 H   0  0  0  0  0  0  0  0  0  0  0  0
    9.0580   -2.5690   22.2310 H   0  0  0  0  0  0  0  0  0  0  0  0
    7.4820   -2.2740   22.9730 H   0  0  0  0  0  0  0  0  0  0  0  0
  1  2  2  0  0  0  0
  2  3  1  0  0  0  0
  2 22  1  0  0  0  0
  3  4  1  0  0  0  0
  3 20  1  0  0  0  0
  3 21  1  0  0  0  0
  4  5  2  0  0  0  0
  4 13  1  0  0  0  0
  5  6  1  0  0  0  0
  5 19  1  0  0  0  0
  6  7  2  0  0  0  0
  7  8  1  0  0  0  0
  7 18  1  0  0  0  0
  8  9  2  0  0  0  0
  8 13  1  0  0  0  0
  9 10  1  0  0  0  0
  9 17  1  0  0  0  0
 10 11  2  0  0  0  0
 10 16  1  0  0  0  0
 11 12  1  0  0  0  0
 11 15  1  0  0  0  0
 12 13  2  0  0  0  0
 12 14  1  0  0  0  0
 22 23  1  0  0  0  0
 22 30  1  0  0  0  0
 23 24  1  0  0  0  0
 23 37  1  0  0  0  0
 23 38  1  0  0  0  0
 24 25  1  0  0  0  0
 24 35  1  0  0  0  0
 24 36  1  0  0  0  0
 25 26  1  0  0  0  0
 25 29  2  0  0  0  0
 26 27  1  0  0  0  0
 27 28  2  0  0  0  0
 27 34  1  0  0  0  0
 28 29  1  0  0  0  0
 28 33  1  0  0  0  0
 29 30  1  0  0  0  0
 30 31  1  0  0  0  0
 30 32  1  0  0  0  0
M  END
>  <MODEL>
       5

$$$$
best_conformers_60.pdb
 OpenBabel02042510453D

 38 41  0  0  0  0  0  0  0  0999 V2000
    7.1480    0.9340   22.5540 O   0  0  0  0  0  0  0  0  0  0  0  0
    7.5270   -0.0360   21.9230 C   0  0  0  0  0  0  0  0  0  0  0  0
    6.5690   -0.8250   21.0110 C   0  0  0  0  0  0  0  0  0  0  0  0
    5.9390   -0.1110   19.8270 C   0  0  0  0  0  0  0  0  0  0  0  0
    6.3370   -0.4010   18.5480 C   0  0  0  0  0  0  0  0  0  0  0  0
    5.8220    0.1380   17.4110 N   0  0  0  0  0  0  0  0  0  0  0  0
    4.8350    0.9930   17.5580 C   0  0  0  0  0  0  0  0  0  0  0  0
    4.2910    1.3680   18.8150 C   0  0  0  0  0  0  0  0  0  0  0  0
    3.2130    2.2870   18.9130 C   0  0  0  0  0  0  0  0  0  0  0  0
    2.6770    2.5930   20.1350 C   0  0  0  0  0  0  0  0  0  0  0  0
    3.1940    1.9930   21.3020 C   0  0  0  0  0  0  0  0  0  0  0  0
    4.2550    1.1210   21.2380 C   0  0  0  0  0  0  0  0  0  0  0  0
    4.8430    0.7940   19.9850 C   0  0  0  0  0  0  0  0  0  0  0  0
    4.6590    0.6940   22.1490 H   0  0  0  0  0  0  0  0  0  0  0  0
    2.7510    2.2330   22.2640 H   0  0  0  0  0  0  0  0  0  0  0  0
    1.8670    3.3140   20.2120 H   0  0  0  0  0  0  0  0  0  0  0  0
    2.8320    2.7460   18.0040 H   0  0  0  0  0  0  0  0  0  0  0  0
    4.4100    1.4310   16.6550 H   0  0  0  0  0  0  0  0  0  0  0  0
    7.1220   -1.1400   18.3750 H   0  0  0  0  0  0  0  0  0  0  0  0
    5.7700   -1.1790   21.6750 H   0  0  0  0  0  0  0  0  0  0  0  0
    7.0630   -1.7320   20.6560 H   0  0  0  0  0  0  0  0  0  0  0  0
    8.8080   -0.5620   22.0830 N   0  0  0  0  0  0  0  0  0  0  0  0
    9.6110   -1.0570   20.9620 C   0  0  0  0  0  0  0  0  0  0  0  0
   10.5400   -2.1910   21.4180 C   0  0  0  0  0  0  0  0  0  0  0  0
   11.2180   -1.7700   22.6920 C   0  0  0  0  0  0  0  0  0  0  0  0
   12.6810   -2.5030   23.2400 S   0  0  0  0  0  0  0  0  0  0  0  0
   12.8270   -1.3630   24.5190 C   0  0  0  0  0  0  0  0  0  0  0  0
   11.7910   -0.4820   24.5390 C   0  0  0  0  0  0  0  0  0  0  0  0
   10.8470   -0.7190   23.4760 C   0  0  0  0  0  0  0  0  0  0  0  0
    9.6520    0.1210   23.0670 C   0  0  0  0  0  0  0  0  0  0  0  0
    9.9850    1.0830   22.6370 H   0  0  0  0  0  0  0  0  0  0  0  0
    9.0240    0.3700   23.9210 H   0  0  0  0  0  0  0  0  0  0  0  0
   11.7240    0.3230   25.2670 H   0  0  0  0  0  0  0  0  0  0  0  0
   13.6960   -1.4060   25.1660 H   0  0  0  0  0  0  0  0  0  0  0  0
   11.3060   -2.4160   20.6670 H   0  0  0  0  0  0  0  0  0  0  0  0
    9.9720   -3.1160   21.5800 H   0  0  0  0  0  0  0  0  0  0  0  0
    8.9600   -1.3680   20.1400 H   0  0  0  0  0  0  0  0  0  0  0  0
   10.2150   -0.2070   20.6080 H   0  0  0  0  0  0  0  0  0  0  0  0
  1  2  2  0  0  0  0
  2  3  1  0  0  0  0
  2 22  1  0  0  0  0
  3  4  1  0  0  0  0
  3 20  1  0  0  0  0
  3 21  1  0  0  0  0
  4  5  2  0  0  0  0
  4 13  1  0  0  0  0
  5  6  1  0  0  0  0
  5 19  1  0  0  0  0
  6  7  2  0  0  0  0
  7  8  1  0  0  0  0
  7 18  1  0  0  0  0
  8  9  2  0  0  0  0
  8 13  1  0  0  0  0
  9 10  1  0  0  0  0
  9 17  1  0  0  0  0
 10 11  2  0  0  0  0
 10 16  1  0  0  0  0
 11 12  1  0  0  0  0
 11 15  1  0  0  0  0
 12 13  2  0  0  0  0
 12 14  1  0  0  0  0
 22 23  1  0  0  0  0
 22 30  1  0  0  0  0
 23 24  1  0  0  0  0
 23 37  1  0  0  0  0
 23 38  1  0  0  0  0
 24 25  1  0  0  0  0
 24 35  1  0  0  0  0
 24 36  1  0  0  0  0
 25 26  1  0  0  0  0
 25 29  2  0  0  0  0
 26 27  1  0  0  0  0
 27 28  2  0  0  0  0
 27 34  1  0  0  0  0
 28 29  1  0  0  0  0
 28 33  1  0  0  0  0
 29 30  1  0  0  0  0
 30 31  1  0  0  0  0
 30 32  1  0  0  0  0
M  END
>  <MODEL>
       6

$$$$
best_conformers_60.pdb
 OpenBabel02042510453D

 38 41  0  0  0  0  0  0  0  0999 V2000
    4.4840   -2.2960   21.1850 O   0  0  0  0  0  0  0  0  0  0  0  0
    5.6590   -2.1560   21.4720 C   0  0  0  0  0  0  0  0  0  0  0  0
    6.4470   -0.9090   21.0250 C   0  0  0  0  0  0  0  0  0  0  0  0
    5.8120   -0.1940   19.8570 C   0  0  0  0  0  0  0  0  0  0  0  0
    6.2420   -0.4550   18.5820 C   0  0  0  0  0  0  0  0  0  0  0  0
    5.7680    0.1270   17.4470 N   0  0  0  0  0  0  0  0  0  0  0  0
    4.8000    1.0020   17.5920 C   0  0  0  0  0  0  0  0  0  0  0  0
    4.2330    1.3620   18.8460 C   0  0  0  0  0  0  0  0  0  0  0  0
    3.1810    2.3120   18.9440 C   0  0  0  0  0  0  0  0  0  0  0  0
    2.6470    2.6320   20.1620 C   0  0  0  0  0  0  0  0  0  0  0  0
    3.1440    2.0150   21.3320 C   0  0  0  0  0  0  0  0  0  0  0  0
    4.1620    1.0950   21.2600 C   0  0  0  0  0  0  0  0  0  0  0  0
    4.7420    0.7440   20.0120 C   0  0  0  0  0  0  0  0  0  0  0  0
    4.5250    0.6170   22.1630 H   0  0  0  0  0  0  0  0  0  0  0  0
    2.7130    2.2770   22.2940 H   0  0  0  0  0  0  0  0  0  0  0  0
    1.8420    3.3590   20.2340 H   0  0  0  0  0  0  0  0  0  0  0  0
    2.8190    2.7790   18.0300 H   0  0  0  0  0  0  0  0  0  0  0  0
    4.4110    1.4690   16.6850 H   0  0  0  0  0  0  0  0  0  0  0  0
    7.0370   -1.1790   18.4050 H   0  0  0  0  0  0  0  0  0  0  0  0
    7.4640   -1.2130   20.7440 H   0  0  0  0  0  0  0  0  0  0  0  0
    6.5630   -0.2310   21.8820 H   0  0  0  0  0  0  0  0  0  0  0  0
    6.3170   -3.1260   22.1710 N   0  0  0  0  0  0  0  0  0  0  0  0
    5.7400   -4.4720   22.1390 C   0  0  0  0  0  0  0  0  0  0  0  0
    5.6650   -5.0640   23.5380 C   0  0  0  0  0  0  0  0  0  0  0  0
    7.0140   -4.8580   24.1630 C   0  0  0  0  0  0  0  0  0  0  0  0
    7.6620   -5.9120   25.3440 S   0  0  0  0  0  0  0  0  0  0  0  0
    8.9960   -4.8690   25.6290 C   0  0  0  0  0  0  0  0  0  0  0  0
    9.0190   -3.8280   24.7530 C   0  0  0  0  0  0  0  0  0  0  0  0
    7.8790   -3.8420   23.8910 C   0  0  0  0  0  0  0  0  0  0  0  0
    7.6450   -2.9220   22.7300 C   0  0  0  0  0  0  0  0  0  0  0  0
    7.7290   -1.8820   23.0750 H   0  0  0  0  0  0  0  0  0  0  0  0
    8.4320   -3.0800   21.9660 H   0  0  0  0  0  0  0  0  0  0  0  0
    9.8340   -3.1120   24.6860 H   0  0  0  0  0  0  0  0  0  0  0  0
    9.6470   -5.0690   26.4650 H   0  0  0  0  0  0  0  0  0  0  0  0
    4.8680   -4.5760   24.1260 H   0  0  0  0  0  0  0  0  0  0  0  0
    5.4220   -6.1320   23.4970 H   0  0  0  0  0  0  0  0  0  0  0  0
    4.7530   -4.3780   21.6810 H   0  0  0  0  0  0  0  0  0  0  0  0
    6.3650   -5.1210   21.5060 H   0  0  0  0  0  0  0  0  0  0  0  0
  1  2  2  0  0  0  0
  2  3  1  0  0  0  0
  2 22  1  0  0  0  0
  3  4  1  0  0  0  0
  3 20  1  0  0  0  0
  3 21  1  0  0  0  0
  4  5  2  0  0  0  0
  4 13  1  0  0  0  0
  5  6  1  0  0  0  0
  5 19  1  0  0  0  0
  6  7  2  0  0  0  0
  7  8  1  0  0  0  0
  7 18  1  0  0  0  0
  8  9  2  0  0  0  0
  8 13  1  0  0  0  0
  9 10  1  0  0  0  0
  9 17  1  0  0  0  0
 10 11  2  0  0  0  0
 10 16  1  0  0  0  0
 11 12  1  0  0  0  0
 11 15  1  0  0  0  0
 12 13  2  0  0  0  0
 12 14  1  0  0  0  0
 22 23  1  0  0  0  0
 22 30  1  0  0  0  0
 23 24  1  0  0  0  0
 23 37  1  0  0  0  0
 23 38  1  0  0  0  0
 24 25  1  0  0  0  0
 24 35  1  0  0  0  0
 24 36  1  0  0  0  0
 25 26  1  0  0  0  0
 25 29  2  0  0  0  0
 26 27  1  0  0  0  0
 27 28  2  0  0  0  0
 27 34  1  0  0  0  0
 28 29  1  0  0  0  0
 28 33  1  0  0  0  0
 29 30  1  0  0  0  0
 30 31  1  0  0  0  0
 30 32  1  0  0  0  0
M  END
>  <MODEL>
       7

$$$$
