best_conformers_81.pdb
 OpenBabel02042510453D

 58 63  0  0  1  0  0  0  0  0999 V2000
    3.6540   -6.0730   25.8530 C   0  0  0  0  0  0  0  0  0  0  0  0
    4.5590   -4.9490   26.2580 C   0  0  0  0  0  0  0  0  0  0  0  0
    4.4840   -3.6750   26.0130 N   0  0  0  0  0  0  0  0  0  0  0  0
    5.6370   -3.1350   26.5810 C   0  0  0  0  0  0  0  0  0  0  0  0
    5.9750   -1.6760   26.5300 C   0  0  0  0  0  0  0  0  0  0  0  0
    6.9870   -1.3310   25.5400 N   0  0  0  0  0  0  0  0  0  0  0  0
    6.5600   -0.7460   24.2820 C   0  0  0  0  0  0  0  0  0  0  0  0
    7.4920   -1.0730   23.0930 C   0  0  2  0  0  0  0  0  0  0  0  0
    7.1070   -0.0900   21.9700 C   0  0  0  0  0  0  0  0  0  0  0  0
    7.2900    1.1100   21.9580 O   0  0  0  0  0  0  0  0  0  0  0  0
    6.4570   -0.7880   20.9770 N   0  0  0  0  0  0  0  0  0  0  0  0
    5.8500   -0.1500   19.8660 C   0  0  0  0  0  0  0  0  0  0  0  0
    6.2610   -0.4570   18.5920 C   0  0  0  0  0  0  0  0  0  0  0  0
    5.7720    0.1140   17.4650 N   0  0  0  0  0  0  0  0  0  0  0  0
    4.8080    0.9950   17.6100 C   0  0  0  0  0  0  0  0  0  0  0  0
    4.2420    1.3650   18.8630 C   0  0  0  0  0  0  0  0  0  0  0  0
    3.1790    2.3090   18.9540 C   0  0  0  0  0  0  0  0  0  0  0  0
    2.6290    2.6230   20.1680 C   0  0  0  0  0  0  0  0  0  0  0  0
    3.1120    1.9980   21.3410 C   0  0  0  0  0  0  0  0  0  0  0  0
    4.1400    1.0920   21.2750 C   0  0  0  0  0  0  0  0  0  0  0  0
    4.7570    0.7660   20.0320 C   0  0  0  0  0  0  0  0  0  0  0  0
    4.5000    0.6250   22.1860 H   0  0  0  0  0  0  0  0  0  0  0  0
    2.6740    2.2520   22.3030 H   0  0  0  0  0  0  0  0  0  0  0  0
    1.8250    3.3530   20.2370 H   0  0  0  0  0  0  0  0  0  0  0  0
    2.8220    2.7760   18.0400 H   0  0  0  0  0  0  0  0  0  0  0  0
    4.4230    1.4560   16.7020 H   0  0  0  0  0  0  0  0  0  0  0  0
    7.0450   -1.1970   18.4310 H   0  0  0  0  0  0  0  0  0  0  0  0
    6.2900   -2.2030   21.2590 C   0  0  0  0  0  0  0  0  0  0  0  0
    7.2600   -2.4750   22.4210 C   0  0  2  0  0  0  0  0  0  0  0  0
    6.7950   -3.6170   23.3280 C   0  0  0  0  0  0  0  0  0  0  0  0
    5.7870   -3.4330   23.7170 H   0  0  0  0  0  0  0  0  0  0  0  0
    7.4580   -3.7430   24.1910 H   0  0  0  0  0  0  0  0  0  0  0  0
    6.7700   -4.5650   22.7770 H   0  0  0  0  0  0  0  0  0  0  0  0
    8.2410   -2.7410   21.9980 H   0  0  0  0  0  0  0  0  0  0  0  0
    5.2510   -2.4400   21.5390 H   0  0  0  0  0  0  0  0  0  0  0  0
    6.5180   -2.7840   20.3650 H   0  0  0  0  0  0  0  0  0  0  0  0
    8.9270   -0.8950   23.5380 C   0  0  0  0  0  0  0  0  0  0  0  0
    9.9220   -0.6360   22.5900 C   0  0  0  0  0  0  0  0  0  0  0  0
   11.2370   -0.5560   23.0000 C   0  0  0  0  0  0  0  0  0  0  0  0
   12.1820   -0.2790   22.0890 F   0  0  0  0  0  0  0  0  0  0  0  0
   11.6250   -0.7510   24.3190 C   0  0  0  0  0  0  0  0  0  0  0  0
   10.6430   -1.0410   25.2490 C   0  0  0  0  0  0  0  0  0  0  0  0
    9.3040   -1.1080   24.8670 C   0  0  0  0  0  0  0  0  0  0  0  0
    8.2950   -1.5170   25.8840 C   0  0  0  0  0  0  0  0  0  0  0  0
    8.6110   -2.0290   26.9490 O   0  0  0  0  0  0  0  0  0  0  0  0
   10.8840   -1.2440   26.2870 H   0  0  0  0  0  0  0  0  0  0  0  0
   12.6760   -0.6850   24.5750 H   0  0  0  0  0  0  0  0  0  0  0  0
    9.6830   -0.4790   21.5430 H   0  0  0  0  0  0  0  0  0  0  0  0
    5.5550   -1.1370   24.0780 H   0  0  0  0  0  0  0  0  0  0  0  0
    6.5270    0.3530   24.3580 H   0  0  0  0  0  0  0  0  0  0  0  0
    5.0620   -1.1200   26.3000 H   0  0  0  0  0  0  0  0  0  0  0  0
    6.3590   -1.3640   27.5070 H   0  0  0  0  0  0  0  0  0  0  0  0
    6.3380   -4.1310   27.1570 C   0  0  0  0  0  0  0  0  0  0  0  0
    5.6440   -5.2900   26.9780 O   0  0  0  0  0  0  0  0  0  0  0  0
    7.2980   -4.1890   27.6440 H   0  0  0  0  0  0  0  0  0  0  0  0
    3.2770   -5.9050   24.8440 H   0  0  0  0  0  0  0  0  0  0  0  0
    2.7990   -6.1290   26.5300 H   0  0  0  0  0  0  0  0  0  0  0  0
    4.1800   -7.0310   25.8890 H   0  0  0  0  0  0  0  0  0  0  0  0
  1  2  1  0  0  0  0
  1 56  1  0  0  0  0
  1 57  1  0  0  0  0
  1 58  1  0  0  0  0
  2  3  2  0  0  0  0
  2 54  1  0  0  0  0
  3  4  1  0  0  0  0
  4  5  1  0  0  0  0
  4 53  2  0  0  0  0
  5  6  1  0  0  0  0
  5 51  1  0  0  0  0
  5 52  1  0  0  0  0
  6  7  1  0  0  0  0
  6 44  1  0  0  0  0
  7  8  1  0  0  0  0
  7 49  1  0  0  0  0
  7 50  1  0  0  0  0
  8  9  1  6  0  0  0
  8 29  1  0  0  0  0
  8 37  1  0  0  0  0
  9 10  2  0  0  0  0
  9 11  1  0  0  0  0
 11 12  1  0  0  0  0
 11 28  1  0  0  0  0
 12 13  2  0  0  0  0
 12 21  1  0  0  0  0
 13 14  1  0  0  0  0
 13 27  1  0  0  0  0
 14 15  2  0  0  0  0
 15 16  1  0  0  0  0
 15 26  1  0  0  0  0
 16 17  2  0  0  0  0
 16 21  1  0  0  0  0
 17 18  1  0  0  0  0
 17 25  1  0  0  0  0
 18 19  2  0  0  0  0
 18 24  1  0  0  0  0
 19 20  1  0  0  0  0
 19 23  1  0  0  0  0
 20 21  2  0  0  0  0
 20 22  1  0  0  0  0
 28 29  1  0  0  0  0
 28 35  1  0  0  0  0
 28 36  1  0  0  0  0
 29 30  1  0  0  0  0
 29 34  1  6  0  0  0
 30 31  1  0  0  0  0
 30 32  1  0  0  0  0
 30 33  1  0  0  0  0
 37 38  2  0  0  0  0
 37 43  1  0  0  0  0
 38 39  1  0  0  0  0
 38 48  1  0  0  0  0
 39 40  1  0  0  0  0
 39 41  2  0  0  0  0
 41 42  1  0  0  0  0
 41 47  1  0  0  0  0
 42 43  2  0  0  0  0
 42 46  1  0  0  0  0
 43 44  1  0  0  0  0
 44 45  2  0  0  0  0
 53 54  1  0  0  0  0
 53 55  1  0  0  0  0
M  END
>  <MODEL>
       1

$$$$
best_conformers_81.pdb
 OpenBabel02042510453D

 58 63  0  0  1  0  0  0  0  0999 V2000
    3.4120    2.1130   27.9920 C   0  0  0  0  0  0  0  0  0  0  0  0
    4.3070    0.9190   27.8840 C   0  0  0  0  0  0  0  0  0  0  0  0
    4.4050    0.0840   26.9020 N   0  0  0  0  0  0  0  0  0  0  0  0
    5.3970   -0.8160   27.2930 C   0  0  0  0  0  0  0  0  0  0  0  0
    5.8680   -1.9300   26.4020 C   0  0  0  0  0  0  0  0  0  0  0  0
    6.8970   -1.5340   25.4530 N   0  0  0  0  0  0  0  0  0  0  0  0
    6.5060   -0.7930   24.2710 C   0  0  0  0  0  0  0  0  0  0  0  0
    7.4620   -1.0760   23.0930 C   0  0  2  0  0  0  0  0  0  0  0  0
    7.0960   -0.0910   21.9700 C   0  0  0  0  0  0  0  0  0  0  0  0
    7.2870    1.1100   21.9560 O   0  0  0  0  0  0  0  0  0  0  0  0
    6.4530   -0.7900   20.9720 N   0  0  0  0  0  0  0  0  0  0  0  0
    5.8460   -0.1510   19.8630 C   0  0  0  0  0  0  0  0  0  0  0  0
    6.2600   -0.4570   18.5910 C   0  0  0  0  0  0  0  0  0  0  0  0
    5.7720    0.1140   17.4630 N   0  0  0  0  0  0  0  0  0  0  0  0
    4.8090    0.9950   17.6100 C   0  0  0  0  0  0  0  0  0  0  0  0
    4.2420    1.3650   18.8620 C   0  0  0  0  0  0  0  0  0  0  0  0
    3.1800    2.3090   18.9540 C   0  0  0  0  0  0  0  0  0  0  0  0
    2.6300    2.6220   20.1670 C   0  0  0  0  0  0  0  0  0  0  0  0
    3.1120    1.9980   21.3410 C   0  0  0  0  0  0  0  0  0  0  0  0
    4.1400    1.0910   21.2760 C   0  0  0  0  0  0  0  0  0  0  0  0
    4.7550    0.7660   20.0330 C   0  0  0  0  0  0  0  0  0  0  0  0
    4.4990    0.6240   22.1870 H   0  0  0  0  0  0  0  0  0  0  0  0
    2.6730    2.2510   22.3020 H   0  0  0  0  0  0  0  0  0  0  0  0
    1.8260    3.3510   20.2370 H   0  0  0  0  0  0  0  0  0  0  0  0
    2.8220    2.7760   18.0390 H   0  0  0  0  0  0  0  0  0  0  0  0
    4.4220    1.4570   16.7020 H   0  0  0  0  0  0  0  0  0  0  0  0
    7.0450   -1.1960   18.4340 H   0  0  0  0  0  0  0  0  0  0  0  0
    6.2830   -2.2050   21.2550 C   0  0  0  0  0  0  0  0  0  0  0  0
    7.2490   -2.4790   22.4180 C   0  0  2  0  0  0  0  0  0  0  0  0
    6.7850   -3.6280   23.3220 C   0  0  0  0  0  0  0  0  0  0  0  0
    5.7880   -3.4300   23.7350 H   0  0  0  0  0  0  0  0  0  0  0  0
    7.4650   -3.7700   24.1680 H   0  0  0  0  0  0  0  0  0  0  0  0
    6.7290   -4.5690   22.7650 H   0  0  0  0  0  0  0  0  0  0  0  0
    8.2340   -2.7410   22.0040 H   0  0  0  0  0  0  0  0  0  0  0  0
    6.5160   -2.7890   20.3660 H   0  0  0  0  0  0  0  0  0  0  0  0
    5.2430   -2.4340   21.5340 H   0  0  0  0  0  0  0  0  0  0  0  0
    8.8870   -0.8870   23.5770 C   0  0  0  0  0  0  0  0  0  0  0  0
    9.9080   -0.6250   22.6570 C   0  0  0  0  0  0  0  0  0  0  0  0
   11.2100   -0.5260   23.1050 C   0  0  0  0  0  0  0  0  0  0  0  0
   12.1810   -0.2530   22.2190 F   0  0  0  0  0  0  0  0  0  0  0  0
   11.5580   -0.6950   24.4410 C   0  0  0  0  0  0  0  0  0  0  0  0
   10.5520   -0.9880   25.3450 C   0  0  0  0  0  0  0  0  0  0  0  0
    9.2270   -1.0940   24.9180 C   0  0  0  0  0  0  0  0  0  0  0  0
    8.1910   -1.5400   25.8940 C   0  0  0  0  0  0  0  0  0  0  0  0
    8.4810   -1.9330   27.0110 O   0  0  0  0  0  0  0  0  0  0  0  0
   10.7680   -1.1740   26.3920 H   0  0  0  0  0  0  0  0  0  0  0  0
   12.6010   -0.6150   24.7280 H   0  0  0  0  0  0  0  0  0  0  0  0
    9.6990   -0.4870   21.6020 H   0  0  0  0  0  0  0  0  0  0  0  0
    6.5350    0.2910   24.4610 H   0  0  0  0  0  0  0  0  0  0  0  0
    5.4780   -1.0850   24.0160 H   0  0  0  0  0  0  0  0  0  0  0  0
    6.3020   -2.7280   27.0100 H   0  0  0  0  0  0  0  0  0  0  0  0
    5.0110   -2.3190   25.8390 H   0  0  0  0  0  0  0  0  0  0  0  0
    5.8210   -0.4700   28.5260 C   0  0  0  0  0  0  0  0  0  0  0  0
    5.1340    0.6440   28.9200 O   0  0  0  0  0  0  0  0  0  0  0  0
    6.5440   -0.8710   29.2220 H   0  0  0  0  0  0  0  0  0  0  0  0
    3.7930    2.8360   28.7180 H   0  0  0  0  0  0  0  0  0  0  0  0
    2.4070    1.8060   28.2990 H   0  0  0  0  0  0  0  0  0  0  0  0
    3.3220    2.5820   27.0110 H   0  0  0  0  0  0  0  0  0  0  0  0
  1  2  1  0  0  0  0
  1 56  1  0  0  0  0
  1 57  1  0  0  0  0
  1 58  1  0  0  0  0
  2  3  2  0  0  0  0
  2 54  1  0  0  0  0
  3  4  1  0  0  0  0
  4  5  1  0  0  0  0
  4 53  2  0  0  0  0
  5  6  1  0  0  0  0
  5 51  1  0  0  0  0
  5 52  1  0  0  0  0
  6  7  1  0  0  0  0
  6 44  1  0  0  0  0
  7  8  1  0  0  0  0
  7 49  1  0  0  0  0
  7 50  1  0  0  0  0
  8  9  1  6  0  0  0
  8 29  1  0  0  0  0
  8 37  1  0  0  0  0
  9 10  2  0  0  0  0
  9 11  1  0  0  0  0
 11 12  1  0  0  0  0
 11 28  1  0  0  0  0
 12 13  2  0  0  0  0
 12 21  1  0  0  0  0
 13 14  1  0  0  0  0
 13 27  1  0  0  0  0
 14 15  2  0  0  0  0
 15 16  1  0  0  0  0
 15 26  1  0  0  0  0
 16 17  2  0  0  0  0
 16 21  1  0  0  0  0
 17 18  1  0  0  0  0
 17 25  1  0  0  0  0
 18 19  2  0  0  0  0
 18 24  1  0  0  0  0
 19 20  1  0  0  0  0
 19 23  1  0  0  0  0
 20 21  2  0  0  0  0
 20 22  1  0  0  0  0
 28 29  1  0  0  0  0
 28 35  1  0  0  0  0
 28 36  1  0  0  0  0
 29 30  1  0  0  0  0
 29 34  1  6  0  0  0
 30 31  1  0  0  0  0
 30 32  1  0  0  0  0
 30 33  1  0  0  0  0
 37 38  2  0  0  0  0
 37 43  1  0  0  0  0
 38 39  1  0  0  0  0
 38 48  1  0  0  0  0
 39 40  1  0  0  0  0
 39 41  2  0  0  0  0
 41 42  1  0  0  0  0
 41 47  1  0  0  0  0
 42 43  2  0  0  0  0
 42 46  1  0  0  0  0
 43 44  1  0  0  0  0
 44 45  2  0  0  0  0
 53 54  1  0  0  0  0
 53 55  1  0  0  0  0
M  END
>  <MODEL>
       2

$$$$
best_conformers_81.pdb
 OpenBabel02042510453D

 58 63  0  0  1  0  0  0  0  0999 V2000
    5.5630    1.1430   30.3250 C   0  0  0  0  0  0  0  0  0  0  0  0
    5.3270    0.4240   29.0350 C   0  0  0  0  0  0  0  0  0  0  0  0
    5.8990   -0.6540   28.6180 N   0  0  0  0  0  0  0  0  0  0  0  0
    5.4190   -0.8470   27.3240 C   0  0  0  0  0  0  0  0  0  0  0  0
    5.9030   -1.9470   26.4200 C   0  0  0  0  0  0  0  0  0  0  0  0
    6.9290   -1.5370   25.4710 N   0  0  0  0  0  0  0  0  0  0  0  0
    6.5300   -0.8010   24.2830 C   0  0  0  0  0  0  0  0  0  0  0  0
    7.4700   -1.0810   23.0920 C   0  0  2  0  0  0  0  0  0  0  0  0
    7.0970   -0.0950   21.9710 C   0  0  0  0  0  0  0  0  0  0  0  0
    7.2900    1.1050   21.9590 O   0  0  0  0  0  0  0  0  0  0  0  0
    6.4520   -0.7910   20.9730 N   0  0  0  0  0  0  0  0  0  0  0  0
    5.8460   -0.1520   19.8630 C   0  0  0  0  0  0  0  0  0  0  0  0
    6.2600   -0.4570   18.5900 C   0  0  0  0  0  0  0  0  0  0  0  0
    5.7720    0.1150   17.4630 N   0  0  0  0  0  0  0  0  0  0  0  0
    4.8080    0.9960   17.6100 C   0  0  0  0  0  0  0  0  0  0  0  0
    4.2420    1.3650   18.8620 C   0  0  0  0  0  0  0  0  0  0  0  0
    3.1800    2.3090   18.9540 C   0  0  0  0  0  0  0  0  0  0  0  0
    2.6300    2.6220   20.1680 C   0  0  0  0  0  0  0  0  0  0  0  0
    3.1130    1.9980   21.3410 C   0  0  0  0  0  0  0  0  0  0  0  0
    4.1400    1.0910   21.2750 C   0  0  0  0  0  0  0  0  0  0  0  0
    4.7550    0.7660   20.0320 C   0  0  0  0  0  0  0  0  0  0  0  0
    4.4990    0.6240   22.1860 H   0  0  0  0  0  0  0  0  0  0  0  0
    2.6730    2.2510   22.3020 H   0  0  0  0  0  0  0  0  0  0  0  0
    1.8260    3.3510   20.2370 H   0  0  0  0  0  0  0  0  0  0  0  0
    2.8220    2.7760   18.0400 H   0  0  0  0  0  0  0  0  0  0  0  0
    4.4220    1.4570   16.7020 H   0  0  0  0  0  0  0  0  0  0  0  0
    7.0440   -1.1960   18.4330 H   0  0  0  0  0  0  0  0  0  0  0  0
    6.2800   -2.2070   21.2550 C   0  0  0  0  0  0  0  0  0  0  0  0
    7.2490   -2.4830   22.4160 C   0  0  2  0  0  0  0  0  0  0  0  0
    6.7830   -3.6320   23.3200 C   0  0  0  0  0  0  0  0  0  0  0  0
    7.4670   -3.7790   24.1620 H   0  0  0  0  0  0  0  0  0  0  0  0
    6.7220   -4.5720   22.7610 H   0  0  0  0  0  0  0  0  0  0  0  0
    5.7890   -3.4320   23.7380 H   0  0  0  0  0  0  0  0  0  0  0  0
    8.2320   -2.7470   22.0000 H   0  0  0  0  0  0  0  0  0  0  0  0
    5.2390   -2.4340   21.5360 H   0  0  0  0  0  0  0  0  0  0  0  0
    6.5100   -2.7920   20.3640 H   0  0  0  0  0  0  0  0  0  0  0  0
    8.8980   -0.8900   23.5630 C   0  0  0  0  0  0  0  0  0  0  0  0
    9.9140   -0.6330   22.6380 C   0  0  0  0  0  0  0  0  0  0  0  0
   11.2190   -0.5380   23.0820 C   0  0  0  0  0  0  0  0  0  0  0  0
   12.1860   -0.2670   22.1920 F   0  0  0  0  0  0  0  0  0  0  0  0
   11.5750   -0.7100   24.4150 C   0  0  0  0  0  0  0  0  0  0  0  0
   10.5730   -0.9990   25.3230 C   0  0  0  0  0  0  0  0  0  0  0  0
    9.2480   -1.1010   24.8990 C   0  0  0  0  0  0  0  0  0  0  0  0
    8.2340   -1.5750   25.8810 C   0  0  0  0  0  0  0  0  0  0  0  0
    8.5660   -2.0190   26.9680 O   0  0  0  0  0  0  0  0  0  0  0  0
   10.7880   -1.1930   26.3680 H   0  0  0  0  0  0  0  0  0  0  0  0
   12.6180   -0.6350   24.7000 H   0  0  0  0  0  0  0  0  0  0  0  0
    9.7000   -0.4940   21.5840 H   0  0  0  0  0  0  0  0  0  0  0  0
    5.5030   -1.0960   24.0190 H   0  0  0  0  0  0  0  0  0  0  0  0
    6.5580    0.2840   24.4650 H   0  0  0  0  0  0  0  0  0  0  0  0
    5.0540   -2.3300   25.8400 H   0  0  0  0  0  0  0  0  0  0  0  0
    6.3260   -2.7530   27.0250 H   0  0  0  0  0  0  0  0  0  0  0  0
    4.5240    0.1300   27.0630 C   0  0  0  0  0  0  0  0  0  0  0  0
    4.4640    0.9620   28.1460 O   0  0  0  0  0  0  0  0  0  0  0  0
    3.8520    0.3660   26.2490 H   0  0  0  0  0  0  0  0  0  0  0  0
    5.7620    0.4010   31.0980 H   0  0  0  0  0  0  0  0  0  0  0  0
    4.7120    1.7690   30.6000 H   0  0  0  0  0  0  0  0  0  0  0  0
    6.4540    1.7780   30.2470 H   0  0  0  0  0  0  0  0  0  0  0  0
  1  2  1  0  0  0  0
  1 56  1  0  0  0  0
  1 57  1  0  0  0  0
  1 58  1  0  0  0  0
  2  3  2  0  0  0  0
  2 54  1  0  0  0  0
  3  4  1  0  0  0  0
  4  5  1  0  0  0  0
  4 53  2  0  0  0  0
  5  6  1  0  0  0  0
  5 51  1  0  0  0  0
  5 52  1  0  0  0  0
  6  7  1  0  0  0  0
  6 44  1  0  0  0  0
  7  8  1  0  0  0  0
  7 49  1  0  0  0  0
  7 50  1  0  0  0  0
  8  9  1  6  0  0  0
  8 29  1  0  0  0  0
  8 37  1  0  0  0  0
  9 10  2  0  0  0  0
  9 11  1  0  0  0  0
 11 12  1  0  0  0  0
 11 28  1  0  0  0  0
 12 13  2  0  0  0  0
 12 21  1  0  0  0  0
 13 14  1  0  0  0  0
 13 27  1  0  0  0  0
 14 15  2  0  0  0  0
 15 16  1  0  0  0  0
 15 26  1  0  0  0  0
 16 17  2  0  0  0  0
 16 21  1  0  0  0  0
 17 18  1  0  0  0  0
 17 25  1  0  0  0  0
 18 19  2  0  0  0  0
 18 24  1  0  0  0  0
 19 20  1  0  0  0  0
 19 23  1  0  0  0  0
 20 21  2  0  0  0  0
 20 22  1  0  0  0  0
 28 29  1  0  0  0  0
 28 35  1  0  0  0  0
 28 36  1  0  0  0  0
 29 30  1  0  0  0  0
 29 34  1  6  0  0  0
 30 31  1  0  0  0  0
 30 32  1  0  0  0  0
 30 33  1  0  0  0  0
 37 38  2  0  0  0  0
 37 43  1  0  0  0  0
 38 39  1  0  0  0  0
 38 48  1  0  0  0  0
 39 40  1  0  0  0  0
 39 41  2  0  0  0  0
 41 42  1  0  0  0  0
 41 47  1  0  0  0  0
 42 43  2  0  0  0  0
 42 46  1  0  0  0  0
 43 44  1  0  0  0  0
 44 45  2  0  0  0  0
 53 54  1  0  0  0  0
 53 55  1  0  0  0  0
M  END
>  <MODEL>
       3

$$$$
best_conformers_81.pdb
 OpenBabel02042510453D

 58 63  0  0  1  0  0  0  0  0999 V2000
    4.3410   -4.7680   27.4000 C   0  0  0  0  0  0  0  0  0  0  0  0
    5.5800   -3.9370   27.3040 C   0  0  0  0  0  0  0  0  0  0  0  0
    5.6970   -2.6850   26.9890 N   0  0  0  0  0  0  0  0  0  0  0  0
    7.0680   -2.4550   26.9520 C   0  0  0  0  0  0  0  0  0  0  0  0
    7.6940   -1.1440   26.6050 C   0  0  0  0  0  0  0  0  0  0  0  0
    8.3110   -1.0930   25.2900 N   0  0  0  0  0  0  0  0  0  0  0  0
    7.6250   -0.4440   24.1930 C   0  0  0  0  0  0  0  0  0  0  0  0
    7.9730   -1.0550   22.8180 C   0  0  2  0  0  0  0  0  0  0  0  0
    7.3650   -0.0700   21.7900 C   0  0  0  0  0  0  0  0  0  0  0  0
    7.6100    1.1140   21.7030 O   0  0  0  0  0  0  0  0  0  0  0  0
    6.4120   -0.7420   21.0360 N   0  0  0  0  0  0  0  0  0  0  0  0
    5.8220   -0.1360   19.8930 C   0  0  0  0  0  0  0  0  0  0  0  0
    6.2540   -0.4430   18.6240 C   0  0  0  0  0  0  0  0  0  0  0  0
    5.7880    0.1180   17.4790 N   0  0  0  0  0  0  0  0  0  0  0  0
    4.8220    0.9980   17.6000 C   0  0  0  0  0  0  0  0  0  0  0  0
    4.2400    1.3720   18.8450 C   0  0  0  0  0  0  0  0  0  0  0  0
    3.1850    2.3230   18.9020 C   0  0  0  0  0  0  0  0  0  0  0  0
    2.6140    2.6450   20.1030 C   0  0  0  0  0  0  0  0  0  0  0  0
    3.0730    2.0400   21.2940 C   0  0  0  0  0  0  0  0  0  0  0  0
    4.1080    1.1350   21.2670 C   0  0  0  0  0  0  0  0  0  0  0  0
    4.7320    0.7850   20.0350 C   0  0  0  0  0  0  0  0  0  0  0  0
    4.4510    0.6800   22.1890 H   0  0  0  0  0  0  0  0  0  0  0  0
    2.6030    2.3030   22.2380 H   0  0  0  0  0  0  0  0  0  0  0  0
    1.8060    3.3720   20.1460 H   0  0  0  0  0  0  0  0  0  0  0  0
    2.8460    2.7800   17.9730 H   0  0  0  0  0  0  0  0  0  0  0  0
    4.4380    1.4550   16.6860 H   0  0  0  0  0  0  0  0  0  0  0  0
    7.0460   -1.1730   18.4760 H   0  0  0  0  0  0  0  0  0  0  0  0
    6.7290   -2.1580   21.0570 C   0  0  0  0  0  0  0  0  0  0  0  0
    7.2550   -2.4140   22.4740 C   0  0  2  0  0  0  0  0  0  0  0  0
    6.1530   -2.8680   23.4260 C   0  0  0  0  0  0  0  0  0  0  0  0
    5.7340   -3.8160   23.0770 H   0  0  0  0  0  0  0  0  0  0  0  0
    6.5490   -3.0270   24.4330 H   0  0  0  0  0  0  0  0  0  0  0  0
    5.3350   -2.1440   23.4860 H   0  0  0  0  0  0  0  0  0  0  0  0
    8.0120   -3.2090   22.4550 H   0  0  0  0  0  0  0  0  0  0  0  0
    7.5510   -2.3290   20.3610 H   0  0  0  0  0  0  0  0  0  0  0  0
    5.8630   -2.7630   20.7890 H   0  0  0  0  0  0  0  0  0  0  0  0
    9.4990   -1.2010   22.7320 C   0  0  0  0  0  0  0  0  0  0  0  0
   10.1660   -1.3300   21.5060 C   0  0  0  0  0  0  0  0  0  0  0  0
   11.5380   -1.5380   21.4920 C   0  0  0  0  0  0  0  0  0  0  0  0
   12.2000   -1.6090   20.3260 F   0  0  0  0  0  0  0  0  0  0  0  0
   12.3010   -1.6950   22.6430 C   0  0  0  0  0  0  0  0  0  0  0  0
   11.6420   -1.6310   23.8520 C   0  0  0  0  0  0  0  0  0  0  0  0
   10.2660   -1.3890   23.8920 C   0  0  0  0  0  0  0  0  0  0  0  0
    9.6290   -1.4690   25.2300 C   0  0  0  0  0  0  0  0  0  0  0  0
   10.2430   -1.8510   26.2200 O   0  0  0  0  0  0  0  0  0  0  0  0
   12.1580   -1.7760   24.7980 H   0  0  0  0  0  0  0  0  0  0  0  0
   13.3630   -1.9020   22.5650 H   0  0  0  0  0  0  0  0  0  0  0  0
    9.6140   -1.3190   20.5740 H   0  0  0  0  0  0  0  0  0  0  0  0
    7.8760    0.6250   24.1410 H   0  0  0  0  0  0  0  0  0  0  0  0
    6.5480   -0.5370   24.3740 H   0  0  0  0  0  0  0  0  0  0  0  0
    6.9940   -0.3120   26.7220 H   0  0  0  0  0  0  0  0  0  0  0  0
    8.5320   -1.0000   27.2700 H   0  0  0  0  0  0  0  0  0  0  0  0
    7.7020   -3.5960   27.2990 C   0  0  0  0  0  0  0  0  0  0  0  0
    6.7610   -4.5610   27.4990 O   0  0  0  0  0  0  0  0  0  0  0  0
    8.7320   -3.8660   27.4390 H   0  0  0  0  0  0  0  0  0  0  0  0
    4.0440   -5.1010   26.3970 H   0  0  0  0  0  0  0  0  0  0  0  0
    3.5190   -4.1780   27.8060 H   0  0  0  0  0  0  0  0  0  0  0  0
    4.5030   -5.6510   28.0220 H   0  0  0  0  0  0  0  0  0  0  0  0
  1  2  1  0  0  0  0
  1 56  1  0  0  0  0
  1 57  1  0  0  0  0
  1 58  1  0  0  0  0
  2  3  2  0  0  0  0
  2 54  1  0  0  0  0
  3  4  1  0  0  0  0
  4  5  1  0  0  0  0
  4 53  2  0  0  0  0
  5  6  1  0  0  0  0
  5 51  1  0  0  0  0
  5 52  1  0  0  0  0
  6  7  1  0  0  0  0
  6 44  1  0  0  0  0
  7  8  1  0  0  0  0
  7 49  1  0  0  0  0
  7 50  1  0  0  0  0
  8  9  1  6  0  0  0
  8 29  1  0  0  0  0
  8 37  1  0  0  0  0
  9 10  2  0  0  0  0
  9 11  1  0  0  0  0
 11 12  1  0  0  0  0
 11 28  1  0  0  0  0
 12 13  2  0  0  0  0
 12 21  1  0  0  0  0
 13 14  1  0  0  0  0
 13 27  1  0  0  0  0
 14 15  2  0  0  0  0
 15 16  1  0  0  0  0
 15 26  1  0  0  0  0
 16 17  2  0  0  0  0
 16 21  1  0  0  0  0
 17 18  1  0  0  0  0
 17 25  1  0  0  0  0
 18 19  2  0  0  0  0
 18 24  1  0  0  0  0
 19 20  1  0  0  0  0
 19 23  1  0  0  0  0
 20 21  2  0  0  0  0
 20 22  1  0  0  0  0
 28 29  1  0  0  0  0
 28 35  1  0  0  0  0
 28 36  1  0  0  0  0
 29 30  1  0  0  0  0
 29 34  1  6  0  0  0
 30 31  1  0  0  0  0
 30 32  1  0  0  0  0
 30 33  1  0  0  0  0
 37 38  2  0  0  0  0
 37 43  1  0  0  0  0
 38 39  1  0  0  0  0
 38 48  1  0  0  0  0
 39 40  1  0  0  0  0
 39 41  2  0  0  0  0
 41 42  1  0  0  0  0
 41 47  1  0  0  0  0
 42 43  2  0  0  0  0
 42 46  1  0  0  0  0
 43 44  1  0  0  0  0
 44 45  2  0  0  0  0
 53 54  1  0  0  0  0
 53 55  1  0  0  0  0
M  END
>  <MODEL>
       4

$$$$
