best_conformers_7.pdb
 OpenBabel02042510453D

 37 39  0  0  0  0  0  0  0  0999 V2000
    4.4920   -2.2440   21.2430 O   0  0  0  0  0  0  0  0  0  0  0  0
    5.6830   -2.1620   21.4610 C   0  0  0  0  0  0  0  0  0  0  0  0
    6.4660   -0.8980   21.0220 C   0  0  0  0  0  0  0  0  0  0  0  0
    5.8140   -0.1780   19.8550 C   0  0  0  0  0  0  0  0  0  0  0  0
    6.2330   -0.4430   18.5760 C   0  0  0  0  0  0  0  0  0  0  0  0
    5.7530    0.1320   17.4400 N   0  0  0  0  0  0  0  0  0  0  0  0
    4.7880    1.0110   17.5850 C   0  0  0  0  0  0  0  0  0  0  0  0
    4.2290    1.3750   18.8390 C   0  0  0  0  0  0  0  0  0  0  0  0
    3.1750    2.3220   18.9390 C   0  0  0  0  0  0  0  0  0  0  0  0
    2.6380    2.6400   20.1590 C   0  0  0  0  0  0  0  0  0  0  0  0
    3.1380    2.0220   21.3290 C   0  0  0  0  0  0  0  0  0  0  0  0
    4.1630    1.1080   21.2570 C   0  0  0  0  0  0  0  0  0  0  0  0
    4.7450    0.7620   20.0090 C   0  0  0  0  0  0  0  0  0  0  0  0
    4.5240    0.6250   22.1600 H   0  0  0  0  0  0  0  0  0  0  0  0
    2.7080    2.2790   22.2920 H   0  0  0  0  0  0  0  0  0  0  0  0
    1.8320    3.3660   20.2370 H   0  0  0  0  0  0  0  0  0  0  0  0
    2.8030    2.7890   18.0290 H   0  0  0  0  0  0  0  0  0  0  0  0
    4.4010    1.4840   16.6800 H   0  0  0  0  0  0  0  0  0  0  0  0
    7.0170   -1.1790   18.4020 H   0  0  0  0  0  0  0  0  0  0  0  0
    6.5620   -0.2220   21.8830 H   0  0  0  0  0  0  0  0  0  0  0  0
    7.4900   -1.1840   20.7400 H   0  0  0  0  0  0  0  0  0  0  0  0
    6.3490   -3.2040   22.0720 N   0  0  0  0  0  0  0  0  0  0  0  0
    7.6460   -3.0830   22.7060 C   0  0  0  0  0  0  0  0  0  0  0  0
    7.7340   -3.9430   23.9630 C   0  0  0  0  0  0  0  0  0  0  0  0
    7.3380   -5.3860   23.6890 C   0  0  0  0  0  0  0  0  0  0  0  0
    5.9450   -5.4300   23.0770 C   0  0  0  0  0  0  0  0  0  0  0  0
    5.8670   -4.5630   21.8290 C   0  0  0  0  0  0  0  0  0  0  0  0
    6.4630   -5.0330   21.0310 H   0  0  0  0  0  0  0  0  0  0  0  0
    4.8440   -4.4980   21.4640 H   0  0  0  0  0  0  0  0  0  0  0  0
    5.2090   -5.0800   23.8060 H   0  0  0  0  0  0  0  0  0  0  0  0
    5.6660   -6.4600   22.8310 H   0  0  0  0  0  0  0  0  0  0  0  0
    8.0580   -5.8430   23.0010 H   0  0  0  0  0  0  0  0  0  0  0  0
    7.3770   -5.9800   24.6090 H   0  0  0  0  0  0  0  0  0  0  0  0
    7.0800   -3.5250   24.7330 H   0  0  0  0  0  0  0  0  0  0  0  0
    8.7500   -3.8890   24.3600 H   0  0  0  0  0  0  0  0  0  0  0  0
    7.8040   -2.0370   22.9650 H   0  0  0  0  0  0  0  0  0  0  0  0
    8.4460   -3.3750   22.0110 H   0  0  0  0  0  0  0  0  0  0  0  0
  1  2  2  0  0  0  0
  2  3  1  0  0  0  0
  2 22  1  0  0  0  0
  3  4  1  0  0  0  0
  3 20  1  0  0  0  0
  3 21  1  0  0  0  0
  4  5  2  0  0  0  0
  4 13  1  0  0  0  0
  5  6  1  0  0  0  0
  5 19  1  0  0  0  0
  6  7  2  0  0  0  0
  7  8  1  0  0  0  0
  7 18  1  0  0  0  0
  8  9  2  0  0  0  0
  8 13  1  0  0  0  0
  9 10  1  0  0  0  0
  9 17  1  0  0  0  0
 10 11  2  0  0  0  0
 10 16  1  0  0  0  0
 11 12  1  0  0  0  0
 11 15  1  0  0  0  0
 12 13  2  0  0  0  0
 12 14  1  0  0  0  0
 22 23  1  0  0  0  0
 22 27  1  0  0  0  0
 23 24  1  0  0  0  0
 23 36  1  0  0  0  0
 23 37  1  0  0  0  0
 24 25  1  0  0  0  0
 24 34  1  0  0  0  0
 24 35  1  0  0  0  0
 25 26  1  0  0  0  0
 25 32  1  0  0  0  0
 25 33  1  0  0  0  0
 26 27  1  0  0  0  0
 26 30  1  0  0  0  0
 26 31  1  0  0  0  0
 27 28  1  0  0  0  0
 27 29  1  0  0  0  0
M  END
>  <MODEL>
       1

$$$$
best_conformers_7.pdb
 OpenBabel02042510453D

 37 39  0  0  0  0  0  0  0  0999 V2000
    4.4910   -2.2440   21.2440 O   0  0  0  0  0  0  0  0  0  0  0  0
    5.6830   -2.1620   21.4600 C   0  0  0  0  0  0  0  0  0  0  0  0
    6.4660   -0.8990   21.0220 C   0  0  0  0  0  0  0  0  0  0  0  0
    5.8140   -0.1780   19.8550 C   0  0  0  0  0  0  0  0  0  0  0  0
    6.2330   -0.4430   18.5760 C   0  0  0  0  0  0  0  0  0  0  0  0
    5.7530    0.1320   17.4400 N   0  0  0  0  0  0  0  0  0  0  0  0
    4.7880    1.0110   17.5850 C   0  0  0  0  0  0  0  0  0  0  0  0
    4.2290    1.3750   18.8390 C   0  0  0  0  0  0  0  0  0  0  0  0
    3.1750    2.3220   18.9390 C   0  0  0  0  0  0  0  0  0  0  0  0
    2.6380    2.6400   20.1590 C   0  0  0  0  0  0  0  0  0  0  0  0
    3.1380    2.0220   21.3290 C   0  0  0  0  0  0  0  0  0  0  0  0
    4.1630    1.1080   21.2570 C   0  0  0  0  0  0  0  0  0  0  0  0
    4.7450    0.7620   20.0090 C   0  0  0  0  0  0  0  0  0  0  0  0
    4.5240    0.6250   22.1600 H   0  0  0  0  0  0  0  0  0  0  0  0
    2.7080    2.2790   22.2920 H   0  0  0  0  0  0  0  0  0  0  0  0
    1.8320    3.3660   20.2370 H   0  0  0  0  0  0  0  0  0  0  0  0
    2.8030    2.7890   18.0290 H   0  0  0  0  0  0  0  0  0  0  0  0
    4.4010    1.4840   16.6800 H   0  0  0  0  0  0  0  0  0  0  0  0
    7.0170   -1.1790   18.4020 H   0  0  0  0  0  0  0  0  0  0  0  0
    7.4890   -1.1850   20.7400 H   0  0  0  0  0  0  0  0  0  0  0  0
    6.5620   -0.2230   21.8840 H   0  0  0  0  0  0  0  0  0  0  0  0
    6.3480   -3.2050   22.0700 N   0  0  0  0  0  0  0  0  0  0  0  0
    5.8660   -4.5640   21.8240 C   0  0  0  0  0  0  0  0  0  0  0  0
    5.9440   -5.4320   23.0720 C   0  0  0  0  0  0  0  0  0  0  0  0
    7.3370   -5.3900   23.6840 C   0  0  0  0  0  0  0  0  0  0  0  0
    7.7330   -3.9470   23.9600 C   0  0  0  0  0  0  0  0  0  0  0  0
    7.6460   -3.0860   22.7040 C   0  0  0  0  0  0  0  0  0  0  0  0
    8.4460   -3.3770   22.0080 H   0  0  0  0  0  0  0  0  0  0  0  0
    7.8040   -2.0400   22.9640 H   0  0  0  0  0  0  0  0  0  0  0  0
    7.0790   -3.5290   24.7310 H   0  0  0  0  0  0  0  0  0  0  0  0
    8.7490   -3.8940   24.3570 H   0  0  0  0  0  0  0  0  0  0  0  0
    7.3750   -5.9850   24.6030 H   0  0  0  0  0  0  0  0  0  0  0  0
    8.0570   -5.8460   22.9950 H   0  0  0  0  0  0  0  0  0  0  0  0
    5.6650   -6.4620   22.8250 H   0  0  0  0  0  0  0  0  0  0  0  0
    5.2080   -5.0830   23.8010 H   0  0  0  0  0  0  0  0  0  0  0  0
    6.4620   -5.0340   21.0260 H   0  0  0  0  0  0  0  0  0  0  0  0
    4.8430   -4.4990   21.4590 H   0  0  0  0  0  0  0  0  0  0  0  0
  1  2  2  0  0  0  0
  2  3  1  0  0  0  0
  2 22  1  0  0  0  0
  3  4  1  0  0  0  0
  3 20  1  0  0  0  0
  3 21  1  0  0  0  0
  4  5  2  0  0  0  0
  4 13  1  0  0  0  0
  5  6  1  0  0  0  0
  5 19  1  0  0  0  0
  6  7  2  0  0  0  0
  7  8  1  0  0  0  0
  7 18  1  0  0  0  0
  8  9  2  0  0  0  0
  8 13  1  0  0  0  0
  9 10  1  0  0  0  0
  9 17  1  0  0  0  0
 10 11  2  0  0  0  0
 10 16  1  0  0  0  0
 11 12  1  0  0  0  0
 11 15  1  0  0  0  0
 12 13  2  0  0  0  0
 12 14  1  0  0  0  0
 22 23  1  0  0  0  0
 22 27  1  0  0  0  0
 23 24  1  0  0  0  0
 23 36  1  0  0  0  0
 23 37  1  0  0  0  0
 24 25  1  0  0  0  0
 24 34  1  0  0  0  0
 24 35  1  0  0  0  0
 25 26  1  0  0  0  0
 25 32  1  0  0  0  0
 25 33  1  0  0  0  0
 26 27  1  0  0  0  0
 26 30  1  0  0  0  0
 26 31  1  0  0  0  0
 27 28  1  0  0  0  0
 27 29  1  0  0  0  0
M  END
>  <MODEL>
       2

$$$$
best_conformers_7.pdb
 OpenBabel02042510453D

 37 39  0  0  0  0  0  0  0  0999 V2000
    7.5170    1.2610   21.6110 O   0  0  0  0  0  0  0  0  0  0  0  0
    7.5860    0.0510   21.6750 C   0  0  0  0  0  0  0  0  0  0  0  0
    6.5020   -0.8480   21.0290 C   0  0  0  0  0  0  0  0  0  0  0  0
    5.8120   -0.1810   19.8550 C   0  0  0  0  0  0  0  0  0  0  0  0
    6.2380   -0.4410   18.5790 C   0  0  0  0  0  0  0  0  0  0  0  0
    5.7630    0.1380   17.4440 N   0  0  0  0  0  0  0  0  0  0  0  0
    4.7890    1.0090   17.5870 C   0  0  0  0  0  0  0  0  0  0  0  0
    4.2330    1.3770   18.8400 C   0  0  0  0  0  0  0  0  0  0  0  0
    3.1820    2.3270   18.9400 C   0  0  0  0  0  0  0  0  0  0  0  0
    2.6590    2.6630   20.1610 C   0  0  0  0  0  0  0  0  0  0  0  0
    3.1730    2.0610   21.3330 C   0  0  0  0  0  0  0  0  0  0  0  0
    4.1950    1.1430   21.2620 C   0  0  0  0  0  0  0  0  0  0  0  0
    4.7560    0.7730   20.0110 C   0  0  0  0  0  0  0  0  0  0  0  0
    4.5970    0.7070   22.1720 H   0  0  0  0  0  0  0  0  0  0  0  0
    2.7610    2.3380   22.3000 H   0  0  0  0  0  0  0  0  0  0  0  0
    1.8580    3.3960   20.2390 H   0  0  0  0  0  0  0  0  0  0  0  0
    2.8050    2.7870   18.0290 H   0  0  0  0  0  0  0  0  0  0  0  0
    4.4020    1.4800   16.6810 H   0  0  0  0  0  0  0  0  0  0  0  0
    7.0280   -1.1700   18.4010 H   0  0  0  0  0  0  0  0  0  0  0  0
    5.7680   -1.1410   21.7920 H   0  0  0  0  0  0  0  0  0  0  0  0
    6.9740   -1.7790   20.6840 H   0  0  0  0  0  0  0  0  0  0  0  0
    8.6700   -0.5850   22.2640 N   0  0  0  0  0  0  0  0  0  0  0  0
    8.5500   -1.7620   23.1140 C   0  0  0  0  0  0  0  0  0  0  0  0
    9.7800   -2.6530   23.0000 C   0  0  0  0  0  0  0  0  0  0  0  0
   11.0560   -1.8720   23.2830 C   0  0  0  0  0  0  0  0  0  0  0  0
   11.1260   -0.6530   22.3720 C   0  0  0  0  0  0  0  0  0  0  0  0
    9.8730    0.2090   22.4950 C   0  0  0  0  0  0  0  0  0  0  0  0
    9.8790    1.0130   21.7630 H   0  0  0  0  0  0  0  0  0  0  0  0
    9.8570    0.6980   23.4800 H   0  0  0  0  0  0  0  0  0  0  0  0
   12.0160   -0.0560   22.5980 H   0  0  0  0  0  0  0  0  0  0  0  0
   11.2370   -0.9770   21.3330 H   0  0  0  0  0  0  0  0  0  0  0  0
   11.0710   -1.5490   24.3320 H   0  0  0  0  0  0  0  0  0  0  0  0
   11.9370   -2.5100   23.1490 H   0  0  0  0  0  0  0  0  0  0  0  0
    9.6880   -3.5000   23.6860 H   0  0  0  0  0  0  0  0  0  0  0  0
    9.8210   -3.0710   21.9910 H   0  0  0  0  0  0  0  0  0  0  0  0
    7.6500   -2.3040   22.8330 H   0  0  0  0  0  0  0  0  0  0  0  0
    8.4220   -1.4740   24.1710 H   0  0  0  0  0  0  0  0  0  0  0  0
  1  2  2  0  0  0  0
  2  3  1  0  0  0  0
  2 22  1  0  0  0  0
  3  4  1  0  0  0  0
  3 20  1  0  0  0  0
  3 21  1  0  0  0  0
  4  5  2  0  0  0  0
  4 13  1  0  0  0  0
  5  6  1  0  0  0  0
  5 19  1  0  0  0  0
  6  7  2  0  0  0  0
  7  8  1  0  0  0  0
  7 18  1  0  0  0  0
  8  9  2  0  0  0  0
  8 13  1  0  0  0  0
  9 10  1  0  0  0  0
  9 17  1  0  0  0  0
 10 11  2  0  0  0  0
 10 16  1  0  0  0  0
 11 12  1  0  0  0  0
 11 15  1  0  0  0  0
 12 13  2  0  0  0  0
 12 14  1  0  0  0  0
 22 23  1  0  0  0  0
 22 27  1  0  0  0  0
 23 24  1  0  0  0  0
 23 36  1  0  0  0  0
 23 37  1  0  0  0  0
 24 25  1  0  0  0  0
 24 34  1  0  0  0  0
 24 35  1  0  0  0  0
 25 26  1  0  0  0  0
 25 32  1  0  0  0  0
 25 33  1  0  0  0  0
 26 27  1  0  0  0  0
 26 30  1  0  0  0  0
 26 31  1  0  0  0  0
 27 28  1  0  0  0  0
 27 29  1  0  0  0  0
M  END
>  <MODEL>
       3

$$$$
best_conformers_7.pdb
 OpenBabel02042510453D

 37 39  0  0  0  0  0  0  0  0999 V2000
    7.5170    1.2610   21.6110 O   0  0  0  0  0  0  0  0  0  0  0  0
    7.5860    0.0510   21.6750 C   0  0  0  0  0  0  0  0  0  0  0  0
    6.5020   -0.8480   21.0290 C   0  0  0  0  0  0  0  0  0  0  0  0
    5.8120   -0.1810   19.8550 C   0  0  0  0  0  0  0  0  0  0  0  0
    6.2380   -0.4410   18.5790 C   0  0  0  0  0  0  0  0  0  0  0  0
    5.7630    0.1380   17.4440 N   0  0  0  0  0  0  0  0  0  0  0  0
    4.7890    1.0090   17.5870 C   0  0  0  0  0  0  0  0  0  0  0  0
    4.2330    1.3770   18.8400 C   0  0  0  0  0  0  0  0  0  0  0  0
    3.1820    2.3270   18.9400 C   0  0  0  0  0  0  0  0  0  0  0  0
    2.6590    2.6630   20.1610 C   0  0  0  0  0  0  0  0  0  0  0  0
    3.1730    2.0610   21.3330 C   0  0  0  0  0  0  0  0  0  0  0  0
    4.1950    1.1430   21.2620 C   0  0  0  0  0  0  0  0  0  0  0  0
    4.7560    0.7730   20.0110 C   0  0  0  0  0  0  0  0  0  0  0  0
    4.5970    0.7070   22.1720 H   0  0  0  0  0  0  0  0  0  0  0  0
    2.7610    2.3380   22.3000 H   0  0  0  0  0  0  0  0  0  0  0  0
    1.8580    3.3960   20.2390 H   0  0  0  0  0  0  0  0  0  0  0  0
    2.8050    2.7870   18.0290 H   0  0  0  0  0  0  0  0  0  0  0  0
    4.4020    1.4800   16.6810 H   0  0  0  0  0  0  0  0  0  0  0  0
    7.0290   -1.1700   18.4010 H   0  0  0  0  0  0  0  0  0  0  0  0
    6.9740   -1.7790   20.6840 H   0  0  0  0  0  0  0  0  0  0  0  0
    5.7680   -1.1410   21.7920 H   0  0  0  0  0  0  0  0  0  0  0  0
    8.6710   -0.5850   22.2640 N   0  0  0  0  0  0  0  0  0  0  0  0
    9.8730    0.2090   22.4940 C   0  0  0  0  0  0  0  0  0  0  0  0
   11.1260   -0.6530   22.3720 C   0  0  0  0  0  0  0  0  0  0  0  0
   11.0560   -1.8720   23.2830 C   0  0  0  0  0  0  0  0  0  0  0  0
    9.7800   -2.6530   22.9990 C   0  0  0  0  0  0  0  0  0  0  0  0
    8.5500   -1.7620   23.1140 C   0  0  0  0  0  0  0  0  0  0  0  0
    7.6500   -2.3040   22.8330 H   0  0  0  0  0  0  0  0  0  0  0  0
    8.4220   -1.4740   24.1710 H   0  0  0  0  0  0  0  0  0  0  0  0
    9.6880   -3.5000   23.6860 H   0  0  0  0  0  0  0  0  0  0  0  0
    9.8200   -3.0720   21.9910 H   0  0  0  0  0  0  0  0  0  0  0  0
   11.0710   -1.5490   24.3320 H   0  0  0  0  0  0  0  0  0  0  0  0
   11.9370   -2.5100   23.1490 H   0  0  0  0  0  0  0  0  0  0  0  0
   12.0160   -0.0560   22.5980 H   0  0  0  0  0  0  0  0  0  0  0  0
   11.2370   -0.9770   21.3330 H   0  0  0  0  0  0  0  0  0  0  0  0
    9.8570    0.6970   23.4800 H   0  0  0  0  0  0  0  0  0  0  0  0
    9.8790    1.0130   21.7630 H   0  0  0  0  0  0  0  0  0  0  0  0
  1  2  2  0  0  0  0
  2  3  1  0  0  0  0
  2 22  1  0  0  0  0
  3  4  1  0  0  0  0
  3 20  1  0  0  0  0
  3 21  1  0  0  0  0
  4  5  2  0  0  0  0
  4 13  1  0  0  0  0
  5  6  1  0  0  0  0
  5 19  1  0  0  0  0
  6  7  2  0  0  0  0
  7  8  1  0  0  0  0
  7 18  1  0  0  0  0
  8  9  2  0  0  0  0
  8 13  1  0  0  0  0
  9 10  1  0  0  0  0
  9 17  1  0  0  0  0
 10 11  2  0  0  0  0
 10 16  1  0  0  0  0
 11 12  1  0  0  0  0
 11 15  1  0  0  0  0
 12 13  2  0  0  0  0
 12 14  1  0  0  0  0
 22 23  1  0  0  0  0
 22 27  1  0  0  0  0
 23 24  1  0  0  0  0
 23 36  1  0  0  0  0
 23 37  1  0  0  0  0
 24 25  1  0  0  0  0
 24 34  1  0  0  0  0
 24 35  1  0  0  0  0
 25 26  1  0  0  0  0
 25 32  1  0  0  0  0
 25 33  1  0  0  0  0
 26 27  1  0  0  0  0
 26 30  1  0  0  0  0
 26 31  1  0  0  0  0
 27 28  1  0  0  0  0
 27 29  1  0  0  0  0
M  END
>  <MODEL>
       4

$$$$
best_conformers_7.pdb
 OpenBabel02042510453D

 37 39  0  0  0  0  0  0  0  0999 V2000
    4.5060   -2.3160   21.2430 O   0  0  0  0  0  0  0  0  0  0  0  0
    5.7010   -2.1990   21.4140 C   0  0  0  0  0  0  0  0  0  0  0  0
    6.4570   -0.9140   21.0260 C   0  0  0  0  0  0  0  0  0  0  0  0
    5.8150   -0.1920   19.8600 C   0  0  0  0  0  0  0  0  0  0  0  0
    6.2430   -0.4550   18.5840 C   0  0  0  0  0  0  0  0  0  0  0  0
    5.7700    0.1250   17.4490 N   0  0  0  0  0  0  0  0  0  0  0  0
    4.8010    1.0000   17.5920 C   0  0  0  0  0  0  0  0  0  0  0  0
    4.2350    1.3620   18.8450 C   0  0  0  0  0  0  0  0  0  0  0  0
    3.1830    2.3120   18.9420 C   0  0  0  0  0  0  0  0  0  0  0  0
    2.6460    2.6330   20.1610 C   0  0  0  0  0  0  0  0  0  0  0  0
    3.1420    2.0160   21.3310 C   0  0  0  0  0  0  0  0  0  0  0  0
    4.1610    1.0960   21.2600 C   0  0  0  0  0  0  0  0  0  0  0  0
    4.7440    0.7470   20.0130 C   0  0  0  0  0  0  0  0  0  0  0  0
    4.5230    0.6160   22.1630 H   0  0  0  0  0  0  0  0  0  0  0  0
    2.7120    2.2780   22.2940 H   0  0  0  0  0  0  0  0  0  0  0  0
    1.8410    3.3610   20.2330 H   0  0  0  0  0  0  0  0  0  0  0  0
    2.8210    2.7790   18.0290 H   0  0  0  0  0  0  0  0  0  0  0  0
    4.4130    1.4660   16.6850 H   0  0  0  0  0  0  0  0  0  0  0  0
    7.0350   -1.1850   18.4130 H   0  0  0  0  0  0  0  0  0  0  0  0
    7.4830   -1.1920   20.7510 H   0  0  0  0  0  0  0  0  0  0  0  0
    6.5430   -0.2490   21.8970 H   0  0  0  0  0  0  0  0  0  0  0  0
    6.4400   -3.2520   21.9090 N   0  0  0  0  0  0  0  0  0  0  0  0
    7.4570   -3.0760   22.9410 C   0  0  0  0  0  0  0  0  0  0  0  0
    8.4900   -4.1830   22.8260 C   0  0  0  0  0  0  0  0  0  0  0  0
    7.7590   -5.5240   22.9480 C   0  0  0  0  0  0  0  0  0  0  0  0
    6.7690   -5.6630   21.7950 C   0  0  0  0  0  0  0  0  0  0  0  0
    5.7560   -4.5400   21.9180 C   0  0  0  0  0  0  0  0  0  0  0  0
    5.1720   -4.6700   22.8460 H   0  0  0  0  0  0  0  0  0  0  0  0
    5.0500   -4.5170   21.0900 H   0  0  0  0  0  0  0  0  0  0  0  0
    7.3140   -5.5790   20.8470 H   0  0  0  0  0  0  0  0  0  0  0  0
    6.2640   -6.6360   21.7900 H   0  0  0  0  0  0  0  0  0  0  0  0
    8.4370   -6.3770   23.0090 H   0  0  0  0  0  0  0  0  0  0  0  0
    7.1990   -5.5340   23.8910 H   0  0  0  0  0  0  0  0  0  0  0  0
    8.9700   -4.1070   21.8410 H   0  0  0  0  0  0  0  0  0  0  0  0
    9.2710   -4.0610   23.5870 H   0  0  0  0  0  0  0  0  0  0  0  0
    7.0070   -3.1270   23.9500 H   0  0  0  0  0  0  0  0  0  0  0  0
    7.9000   -2.0870   22.8170 H   0  0  0  0  0  0  0  0  0  0  0  0
  1  2  2  0  0  0  0
  2  3  1  0  0  0  0
  2 22  1  0  0  0  0
  3  4  1  0  0  0  0
  3 20  1  0  0  0  0
  3 21  1  0  0  0  0
  4  5  2  0  0  0  0
  4 13  1  0  0  0  0
  5  6  1  0  0  0  0
  5 19  1  0  0  0  0
  6  7  2  0  0  0  0
  7  8  1  0  0  0  0
  7 18  1  0  0  0  0
  8  9  2  0  0  0  0
  8 13  1  0  0  0  0
  9 10  1  0  0  0  0
  9 17  1  0  0  0  0
 10 11  2  0  0  0  0
 10 16  1  0  0  0  0
 11 12  1  0  0  0  0
 11 15  1  0  0  0  0
 12 13  2  0  0  0  0
 12 14  1  0  0  0  0
 22 23  1  0  0  0  0
 22 27  1  0  0  0  0
 23 24  1  0  0  0  0
 23 36  1  0  0  0  0
 23 37  1  0  0  0  0
 24 25  1  0  0  0  0
 24 34  1  0  0  0  0
 24 35  1  0  0  0  0
 25 26  1  0  0  0  0
 25 32  1  0  0  0  0
 25 33  1  0  0  0  0
 26 27  1  0  0  0  0
 26 30  1  0  0  0  0
 26 31  1  0  0  0  0
 27 28  1  0  0  0  0
 27 29  1  0  0  0  0
M  END
>  <MODEL>
       5

$$$$
best_conformers_7.pdb
 OpenBabel02042510453D

 37 39  0  0  0  0  0  0  0  0999 V2000
    4.5060   -2.3160   21.2430 O   0  0  0  0  0  0  0  0  0  0  0  0
    5.7010   -2.1990   21.4150 C   0  0  0  0  0  0  0  0  0  0  0  0
    6.4570   -0.9140   21.0260 C   0  0  0  0  0  0  0  0  0  0  0  0
    5.8150   -0.1920   19.8600 C   0  0  0  0  0  0  0  0  0  0  0  0
    6.2430   -0.4550   18.5840 C   0  0  0  0  0  0  0  0  0  0  0  0
    5.7700    0.1250   17.4490 N   0  0  0  0  0  0  0  0  0  0  0  0
    4.8010    1.0000   17.5920 C   0  0  0  0  0  0  0  0  0  0  0  0
    4.2350    1.3620   18.8450 C   0  0  0  0  0  0  0  0  0  0  0  0
    3.1830    2.3120   18.9420 C   0  0  0  0  0  0  0  0  0  0  0  0
    2.6460    2.6330   20.1610 C   0  0  0  0  0  0  0  0  0  0  0  0
    3.1420    2.0160   21.3310 C   0  0  0  0  0  0  0  0  0  0  0  0
    4.1610    1.0960   21.2600 C   0  0  0  0  0  0  0  0  0  0  0  0
    4.7440    0.7470   20.0130 C   0  0  0  0  0  0  0  0  0  0  0  0
    4.5230    0.6160   22.1630 H   0  0  0  0  0  0  0  0  0  0  0  0
    2.7120    2.2780   22.2940 H   0  0  0  0  0  0  0  0  0  0  0  0
    1.8410    3.3610   20.2330 H   0  0  0  0  0  0  0  0  0  0  0  0
    2.8210    2.7790   18.0290 H   0  0  0  0  0  0  0  0  0  0  0  0
    4.4130    1.4660   16.6850 H   0  0  0  0  0  0  0  0  0  0  0  0
    7.0350   -1.1850   18.4130 H   0  0  0  0  0  0  0  0  0  0  0  0
    6.5440   -0.2490   21.8970 H   0  0  0  0  0  0  0  0  0  0  0  0
    7.4830   -1.1920   20.7510 H   0  0  0  0  0  0  0  0  0  0  0  0
    6.4400   -3.2520   21.9090 N   0  0  0  0  0  0  0  0  0  0  0  0
    5.7560   -4.5400   21.9180 C   0  0  0  0  0  0  0  0  0  0  0  0
    6.7690   -5.6630   21.7960 C   0  0  0  0  0  0  0  0  0  0  0  0
    7.7590   -5.5240   22.9480 C   0  0  0  0  0  0  0  0  0  0  0  0
    8.4900   -4.1830   22.8260 C   0  0  0  0  0  0  0  0  0  0  0  0
    7.4570   -3.0760   22.9410 C   0  0  0  0  0  0  0  0  0  0  0  0
    7.9000   -2.0870   22.8180 H   0  0  0  0  0  0  0  0  0  0  0  0
    7.0070   -3.1270   23.9500 H   0  0  0  0  0  0  0  0  0  0  0  0
    9.2710   -4.0610   23.5870 H   0  0  0  0  0  0  0  0  0  0  0  0
    8.9710   -4.1070   21.8410 H   0  0  0  0  0  0  0  0  0  0  0  0
    8.4370   -6.3770   23.0090 H   0  0  0  0  0  0  0  0  0  0  0  0
    7.1990   -5.5340   23.8910 H   0  0  0  0  0  0  0  0  0  0  0  0
    7.3140   -5.5790   20.8470 H   0  0  0  0  0  0  0  0  0  0  0  0
    6.2640   -6.6360   21.7900 H   0  0  0  0  0  0  0  0  0  0  0  0
    5.1720   -4.6700   22.8460 H   0  0  0  0  0  0  0  0  0  0  0  0
    5.0500   -4.5170   21.0900 H   0  0  0  0  0  0  0  0  0  0  0  0
  1  2  2  0  0  0  0
  2  3  1  0  0  0  0
  2 22  1  0  0  0  0
  3  4  1  0  0  0  0
  3 20  1  0  0  0  0
  3 21  1  0  0  0  0
  4  5  2  0  0  0  0
  4 13  1  0  0  0  0
  5  6  1  0  0  0  0
  5 19  1  0  0  0  0
  6  7  2  0  0  0  0
  7  8  1  0  0  0  0
  7 18  1  0  0  0  0
  8  9  2  0  0  0  0
  8 13  1  0  0  0  0
  9 10  1  0  0  0  0
  9 17  1  0  0  0  0
 10 11  2  0  0  0  0
 10 16  1  0  0  0  0
 11 12  1  0  0  0  0
 11 15  1  0  0  0  0
 12 13  2  0  0  0  0
 12 14  1  0  0  0  0
 22 23  1  0  0  0  0
 22 27  1  0  0  0  0
 23 24  1  0  0  0  0
 23 36  1  0  0  0  0
 23 37  1  0  0  0  0
 24 25  1  0  0  0  0
 24 34  1  0  0  0  0
 24 35  1  0  0  0  0
 25 26  1  0  0  0  0
 25 32  1  0  0  0  0
 25 33  1  0  0  0  0
 26 27  1  0  0  0  0
 26 30  1  0  0  0  0
 26 31  1  0  0  0  0
 27 28  1  0  0  0  0
 27 29  1  0  0  0  0
M  END
>  <MODEL>
       6

$$$$
best_conformers_7.pdb
 OpenBabel02042510453D

 37 39  0  0  0  0  0  0  0  0999 V2000
    7.5090    1.2640   21.5890 O   0  0  0  0  0  0  0  0  0  0  0  0
    7.5740    0.0550   21.6990 C   0  0  0  0  0  0  0  0  0  0  0  0
    6.5020   -0.8480   21.0290 C   0  0  0  0  0  0  0  0  0  0  0  0
    5.8140   -0.1790   19.8550 C   0  0  0  0  0  0  0  0  0  0  0  0
    6.2360   -0.4410   18.5770 C   0  0  0  0  0  0  0  0  0  0  0  0
    5.7610    0.1390   17.4420 N   0  0  0  0  0  0  0  0  0  0  0  0
    4.7880    1.0100   17.5860 C   0  0  0  0  0  0  0  0  0  0  0  0
    4.2320    1.3770   18.8390 C   0  0  0  0  0  0  0  0  0  0  0  0
    3.1810    2.3270   18.9400 C   0  0  0  0  0  0  0  0  0  0  0  0
    2.6600    2.6630   20.1620 C   0  0  0  0  0  0  0  0  0  0  0  0
    3.1740    2.0610   21.3330 C   0  0  0  0  0  0  0  0  0  0  0  0
    4.1950    1.1430   21.2620 C   0  0  0  0  0  0  0  0  0  0  0  0
    4.7560    0.7730   20.0100 C   0  0  0  0  0  0  0  0  0  0  0  0
    4.5980    0.7070   22.1710 H   0  0  0  0  0  0  0  0  0  0  0  0
    2.7610    2.3380   22.3000 H   0  0  0  0  0  0  0  0  0  0  0  0
    1.8580    3.3950   20.2400 H   0  0  0  0  0  0  0  0  0  0  0  0
    2.8040    2.7870   18.0290 H   0  0  0  0  0  0  0  0  0  0  0  0
    4.4010    1.4810   16.6810 H   0  0  0  0  0  0  0  0  0  0  0  0
    7.0270   -1.1700   18.4000 H   0  0  0  0  0  0  0  0  0  0  0  0
    6.9750   -1.7770   20.6800 H   0  0  0  0  0  0  0  0  0  0  0  0
    5.7630   -1.1440   21.7860 H   0  0  0  0  0  0  0  0  0  0  0  0
    8.6120   -0.5450   22.3950 N   0  0  0  0  0  0  0  0  0  0  0  0
    9.9160    0.1180   22.3980 C   0  0  0  0  0  0  0  0  0  0  0  0
   10.6210   -0.0010   23.7420 C   0  0  0  0  0  0  0  0  0  0  0  0
   10.7050   -1.4530   24.1940 C   0  0  0  0  0  0  0  0  0  0  0  0
    9.3080   -2.0560   24.2170 C   0  0  0  0  0  0  0  0  0  0  0  0
    8.6090   -1.9210   22.8660 C   0  0  0  0  0  0  0  0  0  0  0  0
    7.5760   -2.2520   22.9570 H   0  0  0  0  0  0  0  0  0  0  0  0
    9.1040   -2.5880   22.1440 H   0  0  0  0  0  0  0  0  0  0  0  0
    8.7080   -1.5630   24.9870 H   0  0  0  0  0  0  0  0  0  0  0  0
    9.3520   -3.1130   24.4960 H   0  0  0  0  0  0  0  0  0  0  0  0
   11.3440   -2.0210   23.5060 H   0  0  0  0  0  0  0  0  0  0  0  0
   11.1780   -1.5250   25.1810 H   0  0  0  0  0  0  0  0  0  0  0  0
   10.0770    0.5860   24.4850 H   0  0  0  0  0  0  0  0  0  0  0  0
   11.6230    0.4390   23.6770 H   0  0  0  0  0  0  0  0  0  0  0  0
    9.7520    1.1610   22.1340 H   0  0  0  0  0  0  0  0  0  0  0  0
   10.5640   -0.3140   21.6190 H   0  0  0  0  0  0  0  0  0  0  0  0
  1  2  2  0  0  0  0
  2  3  1  0  0  0  0
  2 22  1  0  0  0  0
  3  4  1  0  0  0  0
  3 20  1  0  0  0  0
  3 21  1  0  0  0  0
  4  5  2  0  0  0  0
  4 13  1  0  0  0  0
  5  6  1  0  0  0  0
  5 19  1  0  0  0  0
  6  7  2  0  0  0  0
  7  8  1  0  0  0  0
  7 18  1  0  0  0  0
  8  9  2  0  0  0  0
  8 13  1  0  0  0  0
  9 10  1  0  0  0  0
  9 17  1  0  0  0  0
 10 11  2  0  0  0  0
 10 16  1  0  0  0  0
 11 12  1  0  0  0  0
 11 15  1  0  0  0  0
 12 13  2  0  0  0  0
 12 14  1  0  0  0  0
 22 23  1  0  0  0  0
 22 27  1  0  0  0  0
 23 24  1  0  0  0  0
 23 36  1  0  0  0  0
 23 37  1  0  0  0  0
 24 25  1  0  0  0  0
 24 34  1  0  0  0  0
 24 35  1  0  0  0  0
 25 26  1  0  0  0  0
 25 32  1  0  0  0  0
 25 33  1  0  0  0  0
 26 27  1  0  0  0  0
 26 30  1  0  0  0  0
 26 31  1  0  0  0  0
 27 28  1  0  0  0  0
 27 29  1  0  0  0  0
M  END
>  <MODEL>
       7

$$$$
best_conformers_7.pdb
 OpenBabel02042510453D

 37 39  0  0  0  0  0  0  0  0999 V2000
    4.5880   -2.4230   21.0090 O   0  0  0  0  0  0  0  0  0  0  0  0
    5.6160   -2.0930   21.5690 C   0  0  0  0  0  0  0  0  0  0  0  0
    6.4450   -0.8870   21.0480 C   0  0  0  0  0  0  0  0  0  0  0  0
    5.8090   -0.1860   19.8620 C   0  0  0  0  0  0  0  0  0  0  0  0
    6.2320   -0.4490   18.5840 C   0  0  0  0  0  0  0  0  0  0  0  0
    5.7570    0.1300   17.4450 N   0  0  0  0  0  0  0  0  0  0  0  0
    4.7900    1.0080   17.5870 C   0  0  0  0  0  0  0  0  0  0  0  0
    4.2300    1.3730   18.8400 C   0  0  0  0  0  0  0  0  0  0  0  0
    3.1760    2.3200   18.9420 C   0  0  0  0  0  0  0  0  0  0  0  0
    2.6410    2.6380   20.1620 C   0  0  0  0  0  0  0  0  0  0  0  0
    3.1420    2.0210   21.3310 C   0  0  0  0  0  0  0  0  0  0  0  0
    4.1660    1.1050   21.2600 C   0  0  0  0  0  0  0  0  0  0  0  0
    4.7440    0.7590   20.0100 C   0  0  0  0  0  0  0  0  0  0  0  0
    4.5390    0.6340   22.1640 H   0  0  0  0  0  0  0  0  0  0  0  0
    2.7140    2.2810   22.2950 H   0  0  0  0  0  0  0  0  0  0  0  0
    1.8350    3.3650   20.2410 H   0  0  0  0  0  0  0  0  0  0  0  0
    2.8040    2.7870   18.0320 H   0  0  0  0  0  0  0  0  0  0  0  0
    4.4030    1.4820   16.6810 H   0  0  0  0  0  0  0  0  0  0  0  0
    7.0190   -1.1810   18.4040 H   0  0  0  0  0  0  0  0  0  0  0  0
    7.4290   -1.2640   20.7320 H   0  0  0  0  0  0  0  0  0  0  0  0
    6.6540   -0.1660   21.8510 H   0  0  0  0  0  0  0  0  0  0  0  0
    6.0850   -2.8150   22.6410 N   0  0  0  0  0  0  0  0  0  0  0  0
    5.3790   -4.0360   23.0170 C   0  0  0  0  0  0  0  0  0  0  0  0
    6.3540   -5.1690   23.3330 C   0  0  0  0  0  0  0  0  0  0  0  0
    7.4880   -4.7400   24.2830 C   0  0  0  0  0  0  0  0  0  0  0  0
    7.3580   -3.2790   24.6950 C   0  0  0  0  0  0  0  0  0  0  0  0
    7.1650   -2.3550   23.4990 C   0  0  0  0  0  0  0  0  0  0  0  0
    6.9570   -1.3430   23.8590 H   0  0  0  0  0  0  0  0  0  0  0  0
    8.0920   -2.3000   22.9200 H   0  0  0  0  0  0  0  0  0  0  0  0
    8.2560   -2.9630   25.2260 H   0  0  0  0  0  0  0  0  0  0  0  0
    6.5410   -3.1480   25.4100 H   0  0  0  0  0  0  0  0  0  0  0  0
    8.4530   -4.8920   23.7900 H   0  0  0  0  0  0  0  0  0  0  0  0
    7.5090   -5.3710   25.1780 H   0  0  0  0  0  0  0  0  0  0  0  0
    6.7760   -5.5430   22.3980 H   0  0  0  0  0  0  0  0  0  0  0  0
    5.7930   -6.0010   23.7650 H   0  0  0  0  0  0  0  0  0  0  0  0
    4.7260   -4.3100   22.1940 H   0  0  0  0  0  0  0  0  0  0  0  0
    4.7200   -3.8490   23.8750 H   0  0  0  0  0  0  0  0  0  0  0  0
  1  2  2  0  0  0  0
  2  3  1  0  0  0  0
  2 22  1  0  0  0  0
  3  4  1  0  0  0  0
  3 20  1  0  0  0  0
  3 21  1  0  0  0  0
  4  5  2  0  0  0  0
  4 13  1  0  0  0  0
  5  6  1  0  0  0  0
  5 19  1  0  0  0  0
  6  7  2  0  0  0  0
  7  8  1  0  0  0  0
  7 18  1  0  0  0  0
  8  9  2  0  0  0  0
  8 13  1  0  0  0  0
  9 10  1  0  0  0  0
  9 17  1  0  0  0  0
 10 11  2  0  0  0  0
 10 16  1  0  0  0  0
 11 12  1  0  0  0  0
 11 15  1  0  0  0  0
 12 13  2  0  0  0  0
 12 14  1  0  0  0  0
 22 23  1  0  0  0  0
 22 27  1  0  0  0  0
 23 24  1  0  0  0  0
 23 36  1  0  0  0  0
 23 37  1  0  0  0  0
 24 25  1  0  0  0  0
 24 34  1  0  0  0  0
 24 35  1  0  0  0  0
 25 26  1  0  0  0  0
 25 32  1  0  0  0  0
 25 33  1  0  0  0  0
 26 27  1  0  0  0  0
 26 30  1  0  0  0  0
 26 31  1  0  0  0  0
 27 28  1  0  0  0  0
 27 29  1  0  0  0  0
M  END
>  <MODEL>
       8

$$$$
best_conformers_7.pdb
 OpenBabel02042510453D

 37 39  0  0  0  0  0  0  0  0999 V2000
    8.8400   -1.2070   20.5330 O   0  0  0  0  0  0  0  0  0  0  0  0
    8.0190   -0.4990   21.0940 C   0  0  0  0  0  0  0  0  0  0  0  0
    6.5160   -0.8270   21.0110 C   0  0  0  0  0  0  0  0  0  0  0  0
    5.8120   -0.1530   19.8480 C   0  0  0  0  0  0  0  0  0  0  0  0
    6.2300   -0.4380   18.5690 C   0  0  0  0  0  0  0  0  0  0  0  0
    5.7530    0.1340   17.4360 N   0  0  0  0  0  0  0  0  0  0  0  0
    4.7880    1.0140   17.5820 C   0  0  0  0  0  0  0  0  0  0  0  0
    4.2230    1.3820   18.8300 C   0  0  0  0  0  0  0  0  0  0  0  0
    3.1750    2.3340   18.9280 C   0  0  0  0  0  0  0  0  0  0  0  0
    2.6380    2.6610   20.1450 C   0  0  0  0  0  0  0  0  0  0  0  0
    3.1310    2.0500   21.3190 C   0  0  0  0  0  0  0  0  0  0  0  0
    4.1530    1.1290   21.2520 C   0  0  0  0  0  0  0  0  0  0  0  0
    4.7330    0.7710   20.0060 C   0  0  0  0  0  0  0  0  0  0  0  0
    4.5250    0.6790   22.1710 H   0  0  0  0  0  0  0  0  0  0  0  0
    2.7030    2.3150   22.2820 H   0  0  0  0  0  0  0  0  0  0  0  0
    1.8350    3.3920   20.2160 H   0  0  0  0  0  0  0  0  0  0  0  0
    2.8090    2.7940   18.0120 H   0  0  0  0  0  0  0  0  0  0  0  0
    4.4030    1.4840   16.6760 H   0  0  0  0  0  0  0  0  0  0  0  0
    7.0200   -1.1730   18.4170 H   0  0  0  0  0  0  0  0  0  0  0  0
    6.0060   -0.6610   21.9640 H   0  0  0  0  0  0  0  0  0  0  0  0
    6.4950   -1.9070   20.8410 H   0  0  0  0  0  0  0  0  0  0  0  0
    8.4020    0.5950   21.8310 N   0  0  0  0  0  0  0  0  0  0  0  0
    9.8100    0.7550   22.1680 C   0  0  0  0  0  0  0  0  0  0  0  0
   10.0220    1.2820   23.5780 C   0  0  0  0  0  0  0  0  0  0  0  0
    9.2000    2.5540   23.8560 C   0  0  0  0  0  0  0  0  0  0  0  0
    8.2710    2.9060   22.6940 C   0  0  0  0  0  0  0  0  0  0  0  0
    7.5080    1.6980   22.1610 C   0  0  0  0  0  0  0  0  0  0  0  0
    6.7900    1.3660   22.9150 H   0  0  0  0  0  0  0  0  0  0  0  0
    6.9370    1.9900   21.2760 H   0  0  0  0  0  0  0  0  0  0  0  0
    7.5440    3.6500   23.0270 H   0  0  0  0  0  0  0  0  0  0  0  0
    8.8250    3.3960   21.8860 H   0  0  0  0  0  0  0  0  0  0  0  0
    8.6100    2.3940   24.7640 H   0  0  0  0  0  0  0  0  0  0  0  0
    9.8510    3.4110   24.0670 H   0  0  0  0  0  0  0  0  0  0  0  0
    9.7720    0.4930   24.2870 H   0  0  0  0  0  0  0  0  0  0  0  0
   11.0890    1.4950   23.7000 H   0  0  0  0  0  0  0  0  0  0  0  0
   10.2620    1.4930   21.5110 H   0  0  0  0  0  0  0  0  0  0  0  0
   10.3100   -0.1980   22.0030 H   0  0  0  0  0  0  0  0  0  0  0  0
  1  2  2  0  0  0  0
  2  3  1  0  0  0  0
  2 22  1  0  0  0  0
  3  4  1  0  0  0  0
  3 20  1  0  0  0  0
  3 21  1  0  0  0  0
  4  5  2  0  0  0  0
  4 13  1  0  0  0  0
  5  6  1  0  0  0  0
  5 19  1  0  0  0  0
  6  7  2  0  0  0  0
  7  8  1  0  0  0  0
  7 18  1  0  0  0  0
  8  9  2  0  0  0  0
  8 13  1  0  0  0  0
  9 10  1  0  0  0  0
  9 17  1  0  0  0  0
 10 11  2  0  0  0  0
 10 16  1  0  0  0  0
 11 12  1  0  0  0  0
 11 15  1  0  0  0  0
 12 13  2  0  0  0  0
 12 14  1  0  0  0  0
 22 23  1  0  0  0  0
 22 27  1  0  0  0  0
 23 24  1  0  0  0  0
 23 36  1  0  0  0  0
 23 37  1  0  0  0  0
 24 25  1  0  0  0  0
 24 34  1  0  0  0  0
 24 35  1  0  0  0  0
 25 26  1  0  0  0  0
 25 32  1  0  0  0  0
 25 33  1  0  0  0  0
 26 27  1  0  0  0  0
 26 30  1  0  0  0  0
 26 31  1  0  0  0  0
 27 28  1  0  0  0  0
 27 29  1  0  0  0  0
M  END
>  <MODEL>
       9

$$$$
best_conformers_7.pdb
 OpenBabel02042510453D

 37 39  0  0  0  0  0  0  0  0999 V2000
    8.2050    0.8210   21.1450 O   0  0  0  0  0  0  0  0  0  0  0  0
    7.3950    0.1800   21.7850 C   0  0  0  0  0  0  0  0  0  0  0  0
    6.4710   -0.8200   21.0500 C   0  0  0  0  0  0  0  0  0  0  0  0
    5.8050   -0.1780   19.8470 C   0  0  0  0  0  0  0  0  0  0  0  0
    6.2390   -0.4390   18.5730 C   0  0  0  0  0  0  0  0  0  0  0  0
    5.7590    0.1390   17.4360 N   0  0  0  0  0  0  0  0  0  0  0  0
    4.7880    1.0100   17.5830 C   0  0  0  0  0  0  0  0  0  0  0  0
    4.2280    1.3770   18.8360 C   0  0  0  0  0  0  0  0  0  0  0  0
    3.1810    2.3290   18.9420 C   0  0  0  0  0  0  0  0  0  0  0  0
    2.6590    2.6610   20.1630 C   0  0  0  0  0  0  0  0  0  0  0  0
    3.1680    2.0530   21.3340 C   0  0  0  0  0  0  0  0  0  0  0  0
    4.1850    1.1320   21.2600 C   0  0  0  0  0  0  0  0  0  0  0  0
    4.7460    0.7690   20.0060 C   0  0  0  0  0  0  0  0  0  0  0  0
    4.5640    0.6790   22.1740 H   0  0  0  0  0  0  0  0  0  0  0  0
    2.7510    2.3230   22.3000 H   0  0  0  0  0  0  0  0  0  0  0  0
    1.8580    3.3930   20.2430 H   0  0  0  0  0  0  0  0  0  0  0  0
    2.8050    2.7930   18.0320 H   0  0  0  0  0  0  0  0  0  0  0  0
    4.3990    1.4840   16.6790 H   0  0  0  0  0  0  0  0  0  0  0  0
    7.0310   -1.1690   18.4030 H   0  0  0  0  0  0  0  0  0  0  0  0
    7.1110   -1.6360   20.6940 H   0  0  0  0  0  0  0  0  0  0  0  0
    5.7270   -1.2610   21.7250 H   0  0  0  0  0  0  0  0  0  0  0  0
    7.2600    0.3400   23.1620 N   0  0  0  0  0  0  0  0  0  0  0  0
    6.7800   -0.6970   24.0620 C   0  0  0  0  0  0  0  0  0  0  0  0
    7.4940   -0.6310   25.4130 C   0  0  0  0  0  0  0  0  0  0  0  0
    7.4130    0.7630   26.0210 C   0  0  0  0  0  0  0  0  0  0  0  0
    7.9690    1.7850   25.0380 C   0  0  0  0  0  0  0  0  0  0  0  0
    7.2590    1.7000   23.6970 C   0  0  0  0  0  0  0  0  0  0  0  0
    7.7440    2.3360   22.9570 H   0  0  0  0  0  0  0  0  0  0  0  0
    6.2250    2.0690   23.8140 H   0  0  0  0  0  0  0  0  0  0  0  0
    7.8820    2.7990   25.4450 H   0  0  0  0  0  0  0  0  0  0  0  0
    9.0350    1.6060   24.8780 H   0  0  0  0  0  0  0  0  0  0  0  0
    7.9560    0.8020   26.9710 H   0  0  0  0  0  0  0  0  0  0  0  0
    6.3680    1.0050   26.2540 H   0  0  0  0  0  0  0  0  0  0  0  0
    8.5420   -0.9150   25.2840 H   0  0  0  0  0  0  0  0  0  0  0  0
    7.0580   -1.3710   26.0910 H   0  0  0  0  0  0  0  0  0  0  0  0
    5.6920   -0.6260   24.2300 H   0  0  0  0  0  0  0  0  0  0  0  0
    6.9730   -1.6640   23.5990 H   0  0  0  0  0  0  0  0  0  0  0  0
  1  2  2  0  0  0  0
  2  3  1  0  0  0  0
  2 22  1  0  0  0  0
  3  4  1  0  0  0  0
  3 20  1  0  0  0  0
  3 21  1  0  0  0  0
  4  5  2  0  0  0  0
  4 13  1  0  0  0  0
  5  6  1  0  0  0  0
  5 19  1  0  0  0  0
  6  7  2  0  0  0  0
  7  8  1  0  0  0  0
  7 18  1  0  0  0  0
  8  9  2  0  0  0  0
  8 13  1  0  0  0  0
  9 10  1  0  0  0  0
  9 17  1  0  0  0  0
 10 11  2  0  0  0  0
 10 16  1  0  0  0  0
 11 12  1  0  0  0  0
 11 15  1  0  0  0  0
 12 13  2  0  0  0  0
 12 14  1  0  0  0  0
 22 23  1  0  0  0  0
 22 27  1  0  0  0  0
 23 24  1  0  0  0  0
 23 36  1  0  0  0  0
 23 37  1  0  0  0  0
 24 25  1  0  0  0  0
 24 34  1  0  0  0  0
 24 35  1  0  0  0  0
 25 26  1  0  0  0  0
 25 32  1  0  0  0  0
 25 33  1  0  0  0  0
 26 27  1  0  0  0  0
 26 30  1  0  0  0  0
 26 31  1  0  0  0  0
 27 28  1  0  0  0  0
 27 29  1  0  0  0  0
M  END
>  <MODEL>
      10

$$$$
