best_conformers_37.pdb
 OpenBabel02042510453D

 48 51  0  0  0  0  0  0  0  0999 V2000
    4.5730   -4.0730   27.4740 N   0  0  0  0  0  0  0  0  0  0  0  0
    5.0170   -3.2930   26.7380 C   0  0  0  0  0  0  0  0  0  0  0  0
    5.5510   -2.3400   25.7980 C   0  0  0  0  0  0  0  0  0  0  0  0
    6.6080   -2.7000   24.9540 C   0  0  0  0  0  0  0  0  0  0  0  0
    7.0840   -1.7950   24.0180 C   0  0  0  0  0  0  0  0  0  0  0  0
    6.5340   -0.5110   23.9370 C   0  0  0  0  0  0  0  0  0  0  0  0
    7.0930    0.4460   23.0390 N   0  0  0  0  0  0  0  0  0  0  0  0
    7.8270    1.5760   23.6200 C   0  0  0  0  0  0  0  0  0  0  0  0
    9.2080    1.1550   24.0720 C   0  0  0  0  0  0  0  0  0  0  0  0
   10.3630    1.6170   23.4420 C   0  0  0  0  0  0  0  0  0  0  0  0
   11.6160    1.1650   23.8550 C   0  0  0  0  0  0  0  0  0  0  0  0
   11.7250    0.1800   24.8300 C   0  0  0  0  0  0  0  0  0  0  0  0
   10.5570   -0.3210   25.3970 C   0  0  0  0  0  0  0  0  0  0  0  0
   10.6420   -1.6630   26.5040 Cl  0  0  0  0  0  0  0  0  0  0  0  0
    9.3100    0.1790   25.0630 C   0  0  0  0  0  0  0  0  0  0  0  0
    8.4300   -0.2350   25.5490 H   0  0  0  0  0  0  0  0  0  0  0  0
   12.6930   -0.2080   25.1330 H   0  0  0  0  0  0  0  0  0  0  0  0
   12.5180    1.5560   23.3900 H   0  0  0  0  0  0  0  0  0  0  0  0
   10.2830    2.2990   22.5940 H   0  0  0  0  0  0  0  0  0  0  0  0
    7.8820    2.3540   22.8580 H   0  0  0  0  0  0  0  0  0  0  0  0
    7.2350    1.9470   24.4650 H   0  0  0  0  0  0  0  0  0  0  0  0
    7.3420    0.1810   21.7000 C   0  0  0  0  0  0  0  0  0  0  0  0
    8.1880    0.7810   21.0710 O   0  0  0  0  0  0  0  0  0  0  0  0
    6.4490   -0.8550   21.0060 C   0  0  0  0  0  0  0  0  0  0  0  0
    5.7870   -0.2160   19.8160 C   0  0  0  0  0  0  0  0  0  0  0  0
    6.2600   -0.4420   18.5530 C   0  0  0  0  0  0  0  0  0  0  0  0
    5.7910    0.1390   17.4160 N   0  0  0  0  0  0  0  0  0  0  0  0
    4.8060    0.9930   17.5660 C   0  0  0  0  0  0  0  0  0  0  0  0
    4.2290    1.3460   18.8180 C   0  0  0  0  0  0  0  0  0  0  0  0
    3.1910    2.3070   18.9210 C   0  0  0  0  0  0  0  0  0  0  0  0
    2.6710    2.6420   20.1400 C   0  0  0  0  0  0  0  0  0  0  0  0
    3.1680    2.0320   21.3150 C   0  0  0  0  0  0  0  0  0  0  0  0
    4.1720    1.0980   21.2460 C   0  0  0  0  0  0  0  0  0  0  0  0
    4.7310    0.7290   19.9870 C   0  0  0  0  0  0  0  0  0  0  0  0
    4.5480    0.6550   22.1670 H   0  0  0  0  0  0  0  0  0  0  0  0
    2.7500    2.3120   22.2780 H   0  0  0  0  0  0  0  0  0  0  0  0
    1.8790    3.3810   20.2160 H   0  0  0  0  0  0  0  0  0  0  0  0
    2.8270    2.7770   18.0100 H   0  0  0  0  0  0  0  0  0  0  0  0
    4.4170    1.4630   16.6620 H   0  0  0  0  0  0  0  0  0  0  0  0
    7.0850   -1.1400   18.4060 H   0  0  0  0  0  0  0  0  0  0  0  0
    5.7130   -1.2720   21.6990 H   0  0  0  0  0  0  0  0  0  0  0  0
    7.0910   -1.6780   20.6660 H   0  0  0  0  0  0  0  0  0  0  0  0
    5.5140   -0.1390   24.8090 C   0  0  0  0  0  0  0  0  0  0  0  0
    5.0100   -1.0510   25.7270 C   0  0  0  0  0  0  0  0  0  0  0  0
    4.2100   -0.7630   26.4000 H   0  0  0  0  0  0  0  0  0  0  0  0
    5.1240    0.8770   24.7760 H   0  0  0  0  0  0  0  0  0  0  0  0
    7.9590   -2.0390   23.4180 H   0  0  0  0  0  0  0  0  0  0  0  0
    7.0610   -3.6820   25.0490 H   0  0  0  0  0  0  0  0  0  0  0  0
  1  2  3  0  0  0  0
  2  3  1  0  0  0  0
  3  4  2  0  0  0  0
  3 44  1  0  0  0  0
  4  5  1  0  0  0  0
  4 48  1  0  0  0  0
  5  6  2  0  0  0  0
  5 47  1  0  0  0  0
  6  7  1  0  0  0  0
  6 43  1  0  0  0  0
  7  8  1  0  0  0  0
  7 22  1  0  0  0  0
  8  9  1  0  0  0  0
  8 20  1  0  0  0  0
  8 21  1  0  0  0  0
  9 10  2  0  0  0  0
  9 15  1  0  0  0  0
 10 11  1  0  0  0  0
 10 19  1  0  0  0  0
 11 12  2  0  0  0  0
 11 18  1  0  0  0  0
 12 13  1  0  0  0  0
 12 17  1  0  0  0  0
 13 14  1  0  0  0  0
 13 15  2  0  0  0  0
 15 16  1  0  0  0  0
 22 23  2  0  0  0  0
 22 24  1  0  0  0  0
 24 25  1  0  0  0  0
 24 41  1  0  0  0  0
 24 42  1  0  0  0  0
 25 26  2  0  0  0  0
 25 34  1  0  0  0  0
 26 27  1  0  0  0  0
 26 40  1  0  0  0  0
 27 28  2  0  0  0  0
 28 29  1  0  0  0  0
 28 39  1  0  0  0  0
 29 30  2  0  0  0  0
 29 34  1  0  0  0  0
 30 31  1  0  0  0  0
 30 38  1  0  0  0  0
 31 32  2  0  0  0  0
 31 37  1  0  0  0  0
 32 33  1  0  0  0  0
 32 36  1  0  0  0  0
 33 34  2  0  0  0  0
 33 35  1  0  0  0  0
 43 44  2  0  0  0  0
 43 46  1  0  0  0  0
 44 45  1  0  0  0  0
M  END
>  <MODEL>
       1

$$$$
best_conformers_37.pdb
 OpenBabel02042510453D

 48 51  0  0  0  0  0  0  0  0999 V2000
    4.5670   -4.0780   27.4700 N   0  0  0  0  0  0  0  0  0  0  0  0
    5.0130   -3.3000   26.7380 C   0  0  0  0  0  0  0  0  0  0  0  0
    5.5510   -2.3450   25.8030 C   0  0  0  0  0  0  0  0  0  0  0  0
    5.0120   -1.0560   25.7290 C   0  0  0  0  0  0  0  0  0  0  0  0
    5.5260   -0.1410   24.8200 C   0  0  0  0  0  0  0  0  0  0  0  0
    6.5480   -0.5150   23.9490 C   0  0  0  0  0  0  0  0  0  0  0  0
    7.0940    0.4490   23.0450 N   0  0  0  0  0  0  0  0  0  0  0  0
    7.8220    1.5890   23.6260 C   0  0  0  0  0  0  0  0  0  0  0  0
    9.2040    1.1800   24.0810 C   0  0  0  0  0  0  0  0  0  0  0  0
   10.3570    1.6100   23.4260 C   0  0  0  0  0  0  0  0  0  0  0  0
   11.6070    1.1770   23.8510 C   0  0  0  0  0  0  0  0  0  0  0  0
   11.7150    0.2310   24.8630 C   0  0  0  0  0  0  0  0  0  0  0  0
   10.5540   -0.2590   25.4500 C   0  0  0  0  0  0  0  0  0  0  0  0
   10.6410   -1.5720   26.5990 Cl  0  0  0  0  0  0  0  0  0  0  0  0
    9.3090    0.2320   25.1020 C   0  0  0  0  0  0  0  0  0  0  0  0
    8.4290   -0.1480   25.6170 H   0  0  0  0  0  0  0  0  0  0  0  0
   12.6780   -0.1380   25.1920 H   0  0  0  0  0  0  0  0  0  0  0  0
   12.5140    1.5710   23.3980 H   0  0  0  0  0  0  0  0  0  0  0  0
   10.2740    2.2840   22.5760 H   0  0  0  0  0  0  0  0  0  0  0  0
    7.8770    2.3610   22.8570 H   0  0  0  0  0  0  0  0  0  0  0  0
    7.2210    1.9600   24.4660 H   0  0  0  0  0  0  0  0  0  0  0  0
    7.3550    0.1730   21.7100 C   0  0  0  0  0  0  0  0  0  0  0  0
    8.2070    0.7720   21.0820 O   0  0  0  0  0  0  0  0  0  0  0  0
    6.4510   -0.8500   21.0100 C   0  0  0  0  0  0  0  0  0  0  0  0
    5.7890   -0.2060   19.8220 C   0  0  0  0  0  0  0  0  0  0  0  0
    6.2570   -0.4410   18.5580 C   0  0  0  0  0  0  0  0  0  0  0  0
    5.7860    0.1390   17.4220 N   0  0  0  0  0  0  0  0  0  0  0  0
    4.8040    0.9970   17.5700 C   0  0  0  0  0  0  0  0  0  0  0  0
    4.2290    1.3520   18.8210 C   0  0  0  0  0  0  0  0  0  0  0  0
    3.1890    2.3100   18.9250 C   0  0  0  0  0  0  0  0  0  0  0  0
    2.6700    2.6440   20.1440 C   0  0  0  0  0  0  0  0  0  0  0  0
    3.1680    2.0370   21.3190 C   0  0  0  0  0  0  0  0  0  0  0  0
    4.1740    1.1040   21.2500 C   0  0  0  0  0  0  0  0  0  0  0  0
    4.7320    0.7370   19.9910 C   0  0  0  0  0  0  0  0  0  0  0  0
    4.5500    0.6610   22.1700 H   0  0  0  0  0  0  0  0  0  0  0  0
    2.7490    2.3140   22.2830 H   0  0  0  0  0  0  0  0  0  0  0  0
    1.8760    3.3820   20.2210 H   0  0  0  0  0  0  0  0  0  0  0  0
    2.8240    2.7800   18.0150 H   0  0  0  0  0  0  0  0  0  0  0  0
    4.4130    1.4660   16.6660 H   0  0  0  0  0  0  0  0  0  0  0  0
    7.0760   -1.1440   18.4080 H   0  0  0  0  0  0  0  0  0  0  0  0
    5.7160   -1.2650   21.7040 H   0  0  0  0  0  0  0  0  0  0  0  0
    7.0920   -1.6740   20.6700 H   0  0  0  0  0  0  0  0  0  0  0  0
    7.0990   -1.8000   24.0360 C   0  0  0  0  0  0  0  0  0  0  0  0
    6.6110   -2.7070   24.9640 C   0  0  0  0  0  0  0  0  0  0  0  0
    7.0620   -3.6910   25.0520 H   0  0  0  0  0  0  0  0  0  0  0  0
    7.9730   -2.0440   23.4320 H   0  0  0  0  0  0  0  0  0  0  0  0
    5.1310    0.8720   24.7820 H   0  0  0  0  0  0  0  0  0  0  0  0
    4.2070   -0.7700   26.3970 H   0  0  0  0  0  0  0  0  0  0  0  0
  1  2  3  0  0  0  0
  2  3  1  0  0  0  0
  3  4  2  0  0  0  0
  3 44  1  0  0  0  0
  4  5  1  0  0  0  0
  4 48  1  0  0  0  0
  5  6  2  0  0  0  0
  5 47  1  0  0  0  0
  6  7  1  0  0  0  0
  6 43  1  0  0  0  0
  7  8  1  0  0  0  0
  7 22  1  0  0  0  0
  8  9  1  0  0  0  0
  8 20  1  0  0  0  0
  8 21  1  0  0  0  0
  9 10  2  0  0  0  0
  9 15  1  0  0  0  0
 10 11  1  0  0  0  0
 10 19  1  0  0  0  0
 11 12  2  0  0  0  0
 11 18  1  0  0  0  0
 12 13  1  0  0  0  0
 12 17  1  0  0  0  0
 13 14  1  0  0  0  0
 13 15  2  0  0  0  0
 15 16  1  0  0  0  0
 22 23  2  0  0  0  0
 22 24  1  0  0  0  0
 24 25  1  0  0  0  0
 24 41  1  0  0  0  0
 24 42  1  0  0  0  0
 25 26  2  0  0  0  0
 25 34  1  0  0  0  0
 26 27  1  0  0  0  0
 26 40  1  0  0  0  0
 27 28  2  0  0  0  0
 28 29  1  0  0  0  0
 28 39  1  0  0  0  0
 29 30  2  0  0  0  0
 29 34  1  0  0  0  0
 30 31  1  0  0  0  0
 30 38  1  0  0  0  0
 31 32  2  0  0  0  0
 31 37  1  0  0  0  0
 32 33  1  0  0  0  0
 32 36  1  0  0  0  0
 33 34  2  0  0  0  0
 33 35  1  0  0  0  0
 43 44  2  0  0  0  0
 43 46  1  0  0  0  0
 44 45  1  0  0  0  0
M  END
>  <MODEL>
       2

$$$$
best_conformers_37.pdb
 OpenBabel02042510453D

 48 51  0  0  0  0  0  0  0  0999 V2000
    4.5490   -4.1020   27.4600 N   0  0  0  0  0  0  0  0  0  0  0  0
    5.0040   -3.3260   26.7310 C   0  0  0  0  0  0  0  0  0  0  0  0
    5.5470   -2.3660   25.8020 C   0  0  0  0  0  0  0  0  0  0  0  0
    6.6100   -2.7240   24.9660 C   0  0  0  0  0  0  0  0  0  0  0  0
    7.0950   -1.8240   24.0320 C   0  0  0  0  0  0  0  0  0  0  0  0
    6.5380   -0.5470   23.9470 C   0  0  0  0  0  0  0  0  0  0  0  0
    7.0780    0.4250   23.0560 N   0  0  0  0  0  0  0  0  0  0  0  0
    7.8520    1.4870   23.6860 C   0  0  0  0  0  0  0  0  0  0  0  0
    9.1940    0.9980   24.1830 C   0  0  0  0  0  0  0  0  0  0  0  0
    9.2930    0.1280   25.2730 C   0  0  0  0  0  0  0  0  0  0  0  0
   10.5310   -0.3310   25.6970 C   0  0  0  0  0  0  0  0  0  0  0  0
   11.6870    0.0840   25.0440 C   0  0  0  0  0  0  0  0  0  0  0  0
   11.5850    0.9710   23.9790 C   0  0  0  0  0  0  0  0  0  0  0  0
   13.0100    1.5780   23.1830 Cl  0  0  0  0  0  0  0  0  0  0  0  0
   10.3490    1.4110   23.5340 C   0  0  0  0  0  0  0  0  0  0  0  0
   10.2750    2.0390   22.6480 H   0  0  0  0  0  0  0  0  0  0  0  0
   12.6580   -0.2580   25.3690 H   0  0  0  0  0  0  0  0  0  0  0  0
   10.6000   -1.0070   26.5450 H   0  0  0  0  0  0  0  0  0  0  0  0
    8.3960   -0.1790   25.7960 H   0  0  0  0  0  0  0  0  0  0  0  0
    7.2660    1.8940   24.5170 H   0  0  0  0  0  0  0  0  0  0  0  0
    7.9760    2.2670   22.9330 H   0  0  0  0  0  0  0  0  0  0  0  0
    7.3510    0.1880   21.7190 C   0  0  0  0  0  0  0  0  0  0  0  0
    8.2130    0.7970   21.1100 O   0  0  0  0  0  0  0  0  0  0  0  0
    6.4620   -0.8260   21.0160 C   0  0  0  0  0  0  0  0  0  0  0  0
    5.7980   -0.1920   19.8310 C   0  0  0  0  0  0  0  0  0  0  0  0
    6.2640   -0.4340   18.5690 C   0  0  0  0  0  0  0  0  0  0  0  0
    5.7930    0.1390   17.4300 N   0  0  0  0  0  0  0  0  0  0  0  0
    4.8080    0.9950   17.5770 C   0  0  0  0  0  0  0  0  0  0  0  0
    4.2320    1.3550   18.8290 C   0  0  0  0  0  0  0  0  0  0  0  0
    3.1900    2.3120   18.9310 C   0  0  0  0  0  0  0  0  0  0  0  0
    2.6670    2.6460   20.1500 C   0  0  0  0  0  0  0  0  0  0  0  0
    3.1650    2.0400   21.3260 C   0  0  0  0  0  0  0  0  0  0  0  0
    4.1760    1.1120   21.2590 C   0  0  0  0  0  0  0  0  0  0  0  0
    4.7380    0.7460   20.0010 C   0  0  0  0  0  0  0  0  0  0  0  0
    4.5550    0.6700   22.1810 H   0  0  0  0  0  0  0  0  0  0  0  0
    2.7440    2.3190   22.2890 H   0  0  0  0  0  0  0  0  0  0  0  0
    1.8740    3.3850   20.2230 H   0  0  0  0  0  0  0  0  0  0  0  0
    2.8250    2.7790   18.0180 H   0  0  0  0  0  0  0  0  0  0  0  0
    4.4150    1.4540   16.6690 H   0  0  0  0  0  0  0  0  0  0  0  0
    7.0810   -1.1430   18.4340 H   0  0  0  0  0  0  0  0  0  0  0  0
    7.1100   -1.6450   20.6830 H   0  0  0  0  0  0  0  0  0  0  0  0
    5.7230   -1.2270   21.7120 H   0  0  0  0  0  0  0  0  0  0  0  0
    5.5200   -0.1670   24.8170 C   0  0  0  0  0  0  0  0  0  0  0  0
    5.0040   -1.0770   25.7270 C   0  0  0  0  0  0  0  0  0  0  0  0
    4.2000   -0.7910   26.3970 H   0  0  0  0  0  0  0  0  0  0  0  0
    5.1560    0.8590   24.7850 H   0  0  0  0  0  0  0  0  0  0  0  0
    7.9640   -2.0730   23.4240 H   0  0  0  0  0  0  0  0  0  0  0  0
    7.0540   -3.7080   25.0610 H   0  0  0  0  0  0  0  0  0  0  0  0
  1  2  3  0  0  0  0
  2  3  1  0  0  0  0
  3  4  2  0  0  0  0
  3 44  1  0  0  0  0
  4  5  1  0  0  0  0
  4 48  1  0  0  0  0
  5  6  2  0  0  0  0
  5 47  1  0  0  0  0
  6  7  1  0  0  0  0
  6 43  1  0  0  0  0
  7  8  1  0  0  0  0
  7 22  1  0  0  0  0
  8  9  1  0  0  0  0
  8 20  1  0  0  0  0
  8 21  1  0  0  0  0
  9 10  2  0  0  0  0
  9 15  1  0  0  0  0
 10 11  1  0  0  0  0
 10 19  1  0  0  0  0
 11 12  2  0  0  0  0
 11 18  1  0  0  0  0
 12 13  1  0  0  0  0
 12 17  1  0  0  0  0
 13 14  1  0  0  0  0
 13 15  2  0  0  0  0
 15 16  1  0  0  0  0
 22 23  2  0  0  0  0
 22 24  1  0  0  0  0
 24 25  1  0  0  0  0
 24 41  1  0  0  0  0
 24 42  1  0  0  0  0
 25 26  2  0  0  0  0
 25 34  1  0  0  0  0
 26 27  1  0  0  0  0
 26 40  1  0  0  0  0
 27 28  2  0  0  0  0
 28 29  1  0  0  0  0
 28 39  1  0  0  0  0
 29 30  2  0  0  0  0
 29 34  1  0  0  0  0
 30 31  1  0  0  0  0
 30 38  1  0  0  0  0
 31 32  2  0  0  0  0
 31 37  1  0  0  0  0
 32 33  1  0  0  0  0
 32 36  1  0  0  0  0
 33 34  2  0  0  0  0
 33 35  1  0  0  0  0
 43 44  2  0  0  0  0
 43 46  1  0  0  0  0
 44 45  1  0  0  0  0
M  END
>  <MODEL>
       3

$$$$
best_conformers_37.pdb
 OpenBabel02042510453D

 48 51  0  0  0  0  0  0  0  0999 V2000
    4.5470   -4.0980   27.4610 N   0  0  0  0  0  0  0  0  0  0  0  0
    5.0040   -3.3210   26.7310 C   0  0  0  0  0  0  0  0  0  0  0  0
    5.5490   -2.3620   25.8040 C   0  0  0  0  0  0  0  0  0  0  0  0
    5.0050   -1.0740   25.7290 C   0  0  0  0  0  0  0  0  0  0  0  0
    5.5220   -0.1640   24.8180 C   0  0  0  0  0  0  0  0  0  0  0  0
    6.5410   -0.5450   23.9500 C   0  0  0  0  0  0  0  0  0  0  0  0
    7.0770    0.4260   23.0550 N   0  0  0  0  0  0  0  0  0  0  0  0
    7.8470    1.4910   23.6820 C   0  0  0  0  0  0  0  0  0  0  0  0
    9.1940    1.0000   24.1810 C   0  0  0  0  0  0  0  0  0  0  0  0
    9.2950    0.1420   25.2760 C   0  0  0  0  0  0  0  0  0  0  0  0
   10.5320   -0.3200   25.7010 C   0  0  0  0  0  0  0  0  0  0  0  0
   11.6880    0.1010   25.0450 C   0  0  0  0  0  0  0  0  0  0  0  0
   11.5850    0.9790   23.9750 C   0  0  0  0  0  0  0  0  0  0  0  0
   13.0120    1.5920   23.1750 Cl  0  0  0  0  0  0  0  0  0  0  0  0
   10.3480    1.4210   23.5280 C   0  0  0  0  0  0  0  0  0  0  0  0
   10.2730    2.0470   22.6400 H   0  0  0  0  0  0  0  0  0  0  0  0
   12.6620   -0.2380   25.3740 H   0  0  0  0  0  0  0  0  0  0  0  0
   10.6020   -0.9930   26.5510 H   0  0  0  0  0  0  0  0  0  0  0  0
    8.3960   -0.1650   25.8060 H   0  0  0  0  0  0  0  0  0  0  0  0
    7.2650    1.8980   24.5160 H   0  0  0  0  0  0  0  0  0  0  0  0
    7.9740    2.2670   22.9270 H   0  0  0  0  0  0  0  0  0  0  0  0
    7.3530    0.1900   21.7190 C   0  0  0  0  0  0  0  0  0  0  0  0
    8.2170    0.7940   21.1120 O   0  0  0  0  0  0  0  0  0  0  0  0
    6.4650   -0.8230   21.0180 C   0  0  0  0  0  0  0  0  0  0  0  0
    5.7980   -0.1910   19.8320 C   0  0  0  0  0  0  0  0  0  0  0  0
    6.2630   -0.4340   18.5700 C   0  0  0  0  0  0  0  0  0  0  0  0
    5.7930    0.1400   17.4290 N   0  0  0  0  0  0  0  0  0  0  0  0
    4.8080    0.9950   17.5780 C   0  0  0  0  0  0  0  0  0  0  0  0
    4.2310    1.3560   18.8300 C   0  0  0  0  0  0  0  0  0  0  0  0
    3.1890    2.3130   18.9320 C   0  0  0  0  0  0  0  0  0  0  0  0
    2.6670    2.6460   20.1510 C   0  0  0  0  0  0  0  0  0  0  0  0
    3.1650    2.0400   21.3270 C   0  0  0  0  0  0  0  0  0  0  0  0
    4.1760    1.1140   21.2610 C   0  0  0  0  0  0  0  0  0  0  0  0
    4.7380    0.7480   20.0020 C   0  0  0  0  0  0  0  0  0  0  0  0
    4.5550    0.6720   22.1810 H   0  0  0  0  0  0  0  0  0  0  0  0
    2.7440    2.3200   22.2900 H   0  0  0  0  0  0  0  0  0  0  0  0
    1.8730    3.3850   20.2240 H   0  0  0  0  0  0  0  0  0  0  0  0
    2.8250    2.7790   18.0190 H   0  0  0  0  0  0  0  0  0  0  0  0
    4.4150    1.4540   16.6690 H   0  0  0  0  0  0  0  0  0  0  0  0
    7.0790   -1.1440   18.4360 H   0  0  0  0  0  0  0  0  0  0  0  0
    5.7250   -1.2220   21.7140 H   0  0  0  0  0  0  0  0  0  0  0  0
    7.1100   -1.6430   20.6840 H   0  0  0  0  0  0  0  0  0  0  0  0
    7.0970   -1.8220   24.0340 C   0  0  0  0  0  0  0  0  0  0  0  0
    6.6120   -2.7220   24.9690 C   0  0  0  0  0  0  0  0  0  0  0  0
    7.0530   -3.7080   25.0630 H   0  0  0  0  0  0  0  0  0  0  0  0
    7.9670   -2.0710   23.4280 H   0  0  0  0  0  0  0  0  0  0  0  0
    5.1610    0.8620   24.7860 H   0  0  0  0  0  0  0  0  0  0  0  0
    4.2000   -0.7860   26.3970 H   0  0  0  0  0  0  0  0  0  0  0  0
  1  2  3  0  0  0  0
  2  3  1  0  0  0  0
  3  4  2  0  0  0  0
  3 44  1  0  0  0  0
  4  5  1  0  0  0  0
  4 48  1  0  0  0  0
  5  6  2  0  0  0  0
  5 47  1  0  0  0  0
  6  7  1  0  0  0  0
  6 43  1  0  0  0  0
  7  8  1  0  0  0  0
  7 22  1  0  0  0  0
  8  9  1  0  0  0  0
  8 20  1  0  0  0  0
  8 21  1  0  0  0  0
  9 10  2  0  0  0  0
  9 15  1  0  0  0  0
 10 11  1  0  0  0  0
 10 19  1  0  0  0  0
 11 12  2  0  0  0  0
 11 18  1  0  0  0  0
 12 13  1  0  0  0  0
 12 17  1  0  0  0  0
 13 14  1  0  0  0  0
 13 15  2  0  0  0  0
 15 16  1  0  0  0  0
 22 23  2  0  0  0  0
 22 24  1  0  0  0  0
 24 25  1  0  0  0  0
 24 41  1  0  0  0  0
 24 42  1  0  0  0  0
 25 26  2  0  0  0  0
 25 34  1  0  0  0  0
 26 27  1  0  0  0  0
 26 40  1  0  0  0  0
 27 28  2  0  0  0  0
 28 29  1  0  0  0  0
 28 39  1  0  0  0  0
 29 30  2  0  0  0  0
 29 34  1  0  0  0  0
 30 31  1  0  0  0  0
 30 38  1  0  0  0  0
 31 32  2  0  0  0  0
 31 37  1  0  0  0  0
 32 33  1  0  0  0  0
 32 36  1  0  0  0  0
 33 34  2  0  0  0  0
 33 35  1  0  0  0  0
 43 44  2  0  0  0  0
 43 46  1  0  0  0  0
 44 45  1  0  0  0  0
M  END
>  <MODEL>
       4

$$$$
best_conformers_37.pdb
 OpenBabel02042510453D

 48 51  0  0  0  0  0  0  0  0999 V2000
   12.3020   -2.1460   25.3150 N   0  0  0  0  0  0  0  0  0  0  0  0
   11.2580   -2.1920   24.8120 C   0  0  0  0  0  0  0  0  0  0  0  0
    9.9980   -2.3520   24.1350 C   0  0  0  0  0  0  0  0  0  0  0  0
    8.8270   -1.7330   24.5820 C   0  0  0  0  0  0  0  0  0  0  0  0
    7.6180   -1.9700   23.9370 C   0  0  0  0  0  0  0  0  0  0  0  0
    7.5710   -2.8490   22.8470 C   0  0  0  0  0  0  0  0  0  0  0  0
    6.3500   -3.1960   22.1870 N   0  0  0  0  0  0  0  0  0  0  0  0
    5.8310   -4.5700   22.2870 C   0  0  0  0  0  0  0  0  0  0  0  0
    5.1680   -4.8150   23.6180 C   0  0  0  0  0  0  0  0  0  0  0  0
    5.9490   -4.9280   24.7670 C   0  0  0  0  0  0  0  0  0  0  0  0
    5.3400   -4.9550   26.0130 C   0  0  0  0  0  0  0  0  0  0  0  0
    3.9530   -4.9190   26.1270 C   0  0  0  0  0  0  0  0  0  0  0  0
    3.1860   -4.8950   24.9670 C   0  0  0  0  0  0  0  0  0  0  0  0
    1.4440   -4.9310   25.0490 Cl  0  0  0  0  0  0  0  0  0  0  0  0
    3.7790   -4.8340   23.7130 C   0  0  0  0  0  0  0  0  0  0  0  0
    3.1500   -4.7670   22.8230 H   0  0  0  0  0  0  0  0  0  0  0  0
    3.4700   -4.8780   27.0990 H   0  0  0  0  0  0  0  0  0  0  0  0
    5.9470   -4.9420   26.9110 H   0  0  0  0  0  0  0  0  0  0  0  0
    7.0320   -5.0110   24.6720 H   0  0  0  0  0  0  0  0  0  0  0  0
    5.0960   -4.7180   21.4940 H   0  0  0  0  0  0  0  0  0  0  0  0
    6.6580   -5.2740   22.1300 H   0  0  0  0  0  0  0  0  0  0  0  0
    5.6190   -2.2830   21.4570 C   0  0  0  0  0  0  0  0  0  0  0  0
    4.4730   -2.5190   21.1230 O   0  0  0  0  0  0  0  0  0  0  0  0
    6.3780   -1.0150   21.0360 C   0  0  0  0  0  0  0  0  0  0  0  0
    5.7970   -0.2940   19.8530 C   0  0  0  0  0  0  0  0  0  0  0  0
    6.2930   -0.5130   18.5960 C   0  0  0  0  0  0  0  0  0  0  0  0
    5.8450    0.0730   17.4540 N   0  0  0  0  0  0  0  0  0  0  0  0
    4.8590    0.9310   17.5780 C   0  0  0  0  0  0  0  0  0  0  0  0
    4.2570    1.2800   18.8190 C   0  0  0  0  0  0  0  0  0  0  0  0
    3.2260    2.2530   18.9190 C   0  0  0  0  0  0  0  0  0  0  0  0
    2.6950    2.5830   20.1380 C   0  0  0  0  0  0  0  0  0  0  0  0
    3.1590    1.9430   21.3100 C   0  0  0  0  0  0  0  0  0  0  0  0
    4.1420    0.9870   21.2360 C   0  0  0  0  0  0  0  0  0  0  0  0
    4.7310    0.6440   19.9910 C   0  0  0  0  0  0  0  0  0  0  0  0
    4.4900    0.4880   22.1350 H   0  0  0  0  0  0  0  0  0  0  0  0
    2.7430    2.2220   22.2760 H   0  0  0  0  0  0  0  0  0  0  0  0
    1.9210    3.3440   20.2150 H   0  0  0  0  0  0  0  0  0  0  0  0
    2.8820    2.7420   18.0090 H   0  0  0  0  0  0  0  0  0  0  0  0
    4.5010    1.4130   16.6660 H   0  0  0  0  0  0  0  0  0  0  0  0
    7.1210   -1.2090   18.4510 H   0  0  0  0  0  0  0  0  0  0  0  0
    7.4070   -1.3220   20.8180 H   0  0  0  0  0  0  0  0  0  0  0  0
    6.4580   -0.3450   21.9020 H   0  0  0  0  0  0  0  0  0  0  0  0
    8.7530   -3.4110   22.3700 C   0  0  0  0  0  0  0  0  0  0  0  0
    9.9590   -3.1670   23.0030 C   0  0  0  0  0  0  0  0  0  0  0  0
   10.8850   -3.6010   22.6450 H   0  0  0  0  0  0  0  0  0  0  0  0
    8.7130   -4.0120   21.4680 H   0  0  0  0  0  0  0  0  0  0  0  0
    6.7170   -1.4740   24.3000 H   0  0  0  0  0  0  0  0  0  0  0  0
    8.8740   -1.0630   25.4340 H   0  0  0  0  0  0  0  0  0  0  0  0
  1  2  3  0  0  0  0
  2  3  1  0  0  0  0
  3  4  2  0  0  0  0
  3 44  1  0  0  0  0
  4  5  1  0  0  0  0
  4 48  1  0  0  0  0
  5  6  2  0  0  0  0
  5 47  1  0  0  0  0
  6  7  1  0  0  0  0
  6 43  1  0  0  0  0
  7  8  1  0  0  0  0
  7 22  1  0  0  0  0
  8  9  1  0  0  0  0
  8 20  1  0  0  0  0
  8 21  1  0  0  0  0
  9 10  2  0  0  0  0
  9 15  1  0  0  0  0
 10 11  1  0  0  0  0
 10 19  1  0  0  0  0
 11 12  2  0  0  0  0
 11 18  1  0  0  0  0
 12 13  1  0  0  0  0
 12 17  1  0  0  0  0
 13 14  1  0  0  0  0
 13 15  2  0  0  0  0
 15 16  1  0  0  0  0
 22 23  2  0  0  0  0
 22 24  1  0  0  0  0
 24 25  1  0  0  0  0
 24 41  1  0  0  0  0
 24 42  1  0  0  0  0
 25 26  2  0  0  0  0
 25 34  1  0  0  0  0
 26 27  1  0  0  0  0
 26 40  1  0  0  0  0
 27 28  2  0  0  0  0
 28 29  1  0  0  0  0
 28 39  1  0  0  0  0
 29 30  2  0  0  0  0
 29 34  1  0  0  0  0
 30 31  1  0  0  0  0
 30 38  1  0  0  0  0
 31 32  2  0  0  0  0
 31 37  1  0  0  0  0
 32 33  1  0  0  0  0
 32 36  1  0  0  0  0
 33 34  2  0  0  0  0
 33 35  1  0  0  0  0
 43 44  2  0  0  0  0
 43 46  1  0  0  0  0
 44 45  1  0  0  0  0
M  END
>  <MODEL>
       5

$$$$
best_conformers_37.pdb
 OpenBabel02042510453D

 48 51  0  0  0  0  0  0  0  0999 V2000
   12.3250   -2.2040   25.2600 N   0  0  0  0  0  0  0  0  0  0  0  0
   11.2710   -2.2210   24.7780 C   0  0  0  0  0  0  0  0  0  0  0  0
   10.0040   -2.3650   24.1160 C   0  0  0  0  0  0  0  0  0  0  0  0
    9.9560   -3.1830   22.9850 C   0  0  0  0  0  0  0  0  0  0  0  0
    8.7500   -3.4310   22.3550 C   0  0  0  0  0  0  0  0  0  0  0  0
    7.5760   -2.8540   22.8320 C   0  0  0  0  0  0  0  0  0  0  0  0
    6.3580   -3.1960   22.1600 N   0  0  0  0  0  0  0  0  0  0  0  0
    5.8240   -4.5650   22.2620 C   0  0  0  0  0  0  0  0  0  0  0  0
    5.1660   -4.8240   23.5970 C   0  0  0  0  0  0  0  0  0  0  0  0
    5.9480   -4.9540   24.7430 C   0  0  0  0  0  0  0  0  0  0  0  0
    5.3450   -4.9720   25.9950 C   0  0  0  0  0  0  0  0  0  0  0  0
    3.9600   -4.8980   26.1110 C   0  0  0  0  0  0  0  0  0  0  0  0
    3.1880   -4.8610   24.9580 C   0  0  0  0  0  0  0  0  0  0  0  0
    1.4510   -4.8250   25.0570 Cl  0  0  0  0  0  0  0  0  0  0  0  0
    3.7770   -4.8160   23.7010 C   0  0  0  0  0  0  0  0  0  0  0  0
    3.1480   -4.7420   22.8160 H   0  0  0  0  0  0  0  0  0  0  0  0
    3.4890   -4.8480   27.0840 H   0  0  0  0  0  0  0  0  0  0  0  0
    5.9550   -5.0030   26.8910 H   0  0  0  0  0  0  0  0  0  0  0  0
    7.0260   -5.0740   24.6500 H   0  0  0  0  0  0  0  0  0  0  0  0
    6.6500   -5.2670   22.0970 H   0  0  0  0  0  0  0  0  0  0  0  0
    5.0770   -4.6920   21.4770 H   0  0  0  0  0  0  0  0  0  0  0  0
    5.6170   -2.2690   21.4560 C   0  0  0  0  0  0  0  0  0  0  0  0
    4.4630   -2.4890   21.1460 O   0  0  0  0  0  0  0  0  0  0  0  0
    6.3830   -1.0040   21.0330 C   0  0  0  0  0  0  0  0  0  0  0  0
    5.8000   -0.2800   19.8520 C   0  0  0  0  0  0  0  0  0  0  0  0
    6.2880   -0.5040   18.5920 C   0  0  0  0  0  0  0  0  0  0  0  0
    5.8360    0.0810   17.4510 N   0  0  0  0  0  0  0  0  0  0  0  0
    4.8520    0.9410   17.5790 C   0  0  0  0  0  0  0  0  0  0  0  0
    4.2520    1.2900   18.8210 C   0  0  0  0  0  0  0  0  0  0  0  0
    3.2190    2.2600   18.9200 C   0  0  0  0  0  0  0  0  0  0  0  0
    2.6900    2.5910   20.1410 C   0  0  0  0  0  0  0  0  0  0  0  0
    3.1580    1.9540   21.3130 C   0  0  0  0  0  0  0  0  0  0  0  0
    4.1450    0.9990   21.2380 C   0  0  0  0  0  0  0  0  0  0  0  0
    4.7320    0.6570   19.9910 C   0  0  0  0  0  0  0  0  0  0  0  0
    4.4970    0.5030   22.1360 H   0  0  0  0  0  0  0  0  0  0  0  0
    2.7410    2.2300   22.2790 H   0  0  0  0  0  0  0  0  0  0  0  0
    1.9110    3.3480   20.2170 H   0  0  0  0  0  0  0  0  0  0  0  0
    2.8760    2.7480   18.0100 H   0  0  0  0  0  0  0  0  0  0  0  0
    4.4910    1.4190   16.6670 H   0  0  0  0  0  0  0  0  0  0  0  0
    7.1130   -1.2020   18.4450 H   0  0  0  0  0  0  0  0  0  0  0  0
    7.4130   -1.3090   20.8140 H   0  0  0  0  0  0  0  0  0  0  0  0
    6.4720   -0.3270   21.8940 H   0  0  0  0  0  0  0  0  0  0  0  0
    7.6300   -1.9690   23.9200 C   0  0  0  0  0  0  0  0  0  0  0  0
    8.8400   -1.7390   24.5680 C   0  0  0  0  0  0  0  0  0  0  0  0
    8.8790   -1.0690   25.4160 H   0  0  0  0  0  0  0  0  0  0  0  0
    6.7220   -1.4720   24.2670 H   0  0  0  0  0  0  0  0  0  0  0  0
    8.7120   -4.0480   21.4580 H   0  0  0  0  0  0  0  0  0  0  0  0
   10.8820   -3.6110   22.6330 H   0  0  0  0  0  0  0  0  0  0  0  0
  1  2  3  0  0  0  0
  2  3  1  0  0  0  0
  3  4  2  0  0  0  0
  3 44  1  0  0  0  0
  4  5  1  0  0  0  0
  4 48  1  0  0  0  0
  5  6  2  0  0  0  0
  5 47  1  0  0  0  0
  6  7  1  0  0  0  0
  6 43  1  0  0  0  0
  7  8  1  0  0  0  0
  7 22  1  0  0  0  0
  8  9  1  0  0  0  0
  8 20  1  0  0  0  0
  8 21  1  0  0  0  0
  9 10  2  0  0  0  0
  9 15  1  0  0  0  0
 10 11  1  0  0  0  0
 10 19  1  0  0  0  0
 11 12  2  0  0  0  0
 11 18  1  0  0  0  0
 12 13  1  0  0  0  0
 12 17  1  0  0  0  0
 13 14  1  0  0  0  0
 13 15  2  0  0  0  0
 15 16  1  0  0  0  0
 22 23  2  0  0  0  0
 22 24  1  0  0  0  0
 24 25  1  0  0  0  0
 24 41  1  0  0  0  0
 24 42  1  0  0  0  0
 25 26  2  0  0  0  0
 25 34  1  0  0  0  0
 26 27  1  0  0  0  0
 26 40  1  0  0  0  0
 27 28  2  0  0  0  0
 28 29  1  0  0  0  0
 28 39  1  0  0  0  0
 29 30  2  0  0  0  0
 29 34  1  0  0  0  0
 30 31  1  0  0  0  0
 30 38  1  0  0  0  0
 31 32  2  0  0  0  0
 31 37  1  0  0  0  0
 32 33  1  0  0  0  0
 32 36  1  0  0  0  0
 33 34  2  0  0  0  0
 33 35  1  0  0  0  0
 43 44  2  0  0  0  0
 43 46  1  0  0  0  0
 44 45  1  0  0  0  0
M  END
>  <MODEL>
       6

$$$$
best_conformers_37.pdb
 OpenBabel02042510453D

 48 51  0  0  0  0  0  0  0  0999 V2000
    1.8590   -7.6560   24.9860 N   0  0  0  0  0  0  0  0  0  0  0  0
    2.5410   -6.7800   24.6560 C   0  0  0  0  0  0  0  0  0  0  0  0
    3.3750   -5.6840   24.2400 C   0  0  0  0  0  0  0  0  0  0  0  0
    3.3270   -4.4710   24.9310 C   0  0  0  0  0  0  0  0  0  0  0  0
    4.1210   -3.4130   24.5220 C   0  0  0  0  0  0  0  0  0  0  0  0
    4.8880   -3.5260   23.3640 C   0  0  0  0  0  0  0  0  0  0  0  0
    5.5950   -2.3880   22.8900 N   0  0  0  0  0  0  0  0  0  0  0  0
    6.4930   -1.6990   23.8200 C   0  0  0  0  0  0  0  0  0  0  0  0
    7.9520   -1.9760   23.5300 C   0  0  0  0  0  0  0  0  0  0  0  0
    8.3300   -3.3100   23.6140 C   0  0  0  0  0  0  0  0  0  0  0  0
    9.6580   -3.6600   23.4740 C   0  0  0  0  0  0  0  0  0  0  0  0
   10.6110   -2.7320   23.0730 C   0  0  0  0  0  0  0  0  0  0  0  0
   10.2320   -1.4030   22.9790 C   0  0  0  0  0  0  0  0  0  0  0  0
   11.4270   -0.2140   22.5330 Cl  0  0  0  0  0  0  0  0  0  0  0  0
    8.9290   -1.0110   23.2720 C   0  0  0  0  0  0  0  0  0  0  0  0
    8.7090    0.0490   23.2720 H   0  0  0  0  0  0  0  0  0  0  0  0
   11.6320   -3.0280   22.8600 H   0  0  0  0  0  0  0  0  0  0  0  0
    9.9700   -4.6590   23.7310 H   0  0  0  0  0  0  0  0  0  0  0  0
    7.5510   -4.0590   23.7730 H   0  0  0  0  0  0  0  0  0  0  0  0
    6.2680   -0.6270   23.8790 H   0  0  0  0  0  0  0  0  0  0  0  0
    6.2920   -2.1300   24.8060 H   0  0  0  0  0  0  0  0  0  0  0  0
    5.4990   -2.0840   21.5430 C   0  0  0  0  0  0  0  0  0  0  0  0
    4.7870   -2.7160   20.7830 O   0  0  0  0  0  0  0  0  0  0  0  0
    6.3560   -0.9220   21.0400 C   0  0  0  0  0  0  0  0  0  0  0  0
    5.7770   -0.2110   19.8590 C   0  0  0  0  0  0  0  0  0  0  0  0
    6.2460   -0.4650   18.5980 C   0  0  0  0  0  0  0  0  0  0  0  0
    5.7960    0.1150   17.4540 N   0  0  0  0  0  0  0  0  0  0  0  0
    4.8170    0.9800   17.5860 C   0  0  0  0  0  0  0  0  0  0  0  0
    4.2350    1.3500   18.8340 C   0  0  0  0  0  0  0  0  0  0  0  0
    3.1890    2.3060   18.9290 C   0  0  0  0  0  0  0  0  0  0  0  0
    2.6510    2.6330   20.1450 C   0  0  0  0  0  0  0  0  0  0  0  0
    3.1380    2.0220   21.3230 C   0  0  0  0  0  0  0  0  0  0  0  0
    4.1540    1.1000   21.2610 C   0  0  0  0  0  0  0  0  0  0  0  0
    4.7270    0.7400   20.0100 C   0  0  0  0  0  0  0  0  0  0  0  0
    4.5200    0.6460   22.1780 H   0  0  0  0  0  0  0  0  0  0  0  0
    2.7140    2.3000   22.2850 H   0  0  0  0  0  0  0  0  0  0  0  0
    1.8510    3.3670   20.2150 H   0  0  0  0  0  0  0  0  0  0  0  0
    2.8300    2.7750   18.0170 H   0  0  0  0  0  0  0  0  0  0  0  0
    4.4400    1.4500   16.6760 H   0  0  0  0  0  0  0  0  0  0  0  0
    7.0530   -1.1870   18.4700 H   0  0  0  0  0  0  0  0  0  0  0  0
    6.5420   -0.2170   21.8540 H   0  0  0  0  0  0  0  0  0  0  0  0
    7.3210   -1.3630   20.7600 H   0  0  0  0  0  0  0  0  0  0  0  0
    4.9850   -4.7510   22.7040 C   0  0  0  0  0  0  0  0  0  0  0  0
    4.2360   -5.8270   23.1490 C   0  0  0  0  0  0  0  0  0  0  0  0
    4.2870   -6.7730   22.6260 H   0  0  0  0  0  0  0  0  0  0  0  0
    5.6370   -4.8580   21.8440 H   0  0  0  0  0  0  0  0  0  0  0  0
    4.0830   -2.4610   25.0460 H   0  0  0  0  0  0  0  0  0  0  0  0
    2.6560   -4.3530   25.7720 H   0  0  0  0  0  0  0  0  0  0  0  0
  1  2  3  0  0  0  0
  2  3  1  0  0  0  0
  3  4  2  0  0  0  0
  3 44  1  0  0  0  0
  4  5  1  0  0  0  0
  4 48  1  0  0  0  0
  5  6  2  0  0  0  0
  5 47  1  0  0  0  0
  6  7  1  0  0  0  0
  6 43  1  0  0  0  0
  7  8  1  0  0  0  0
  7 22  1  0  0  0  0
  8  9  1  0  0  0  0
  8 20  1  0  0  0  0
  8 21  1  0  0  0  0
  9 10  2  0  0  0  0
  9 15  1  0  0  0  0
 10 11  1  0  0  0  0
 10 19  1  0  0  0  0
 11 12  2  0  0  0  0
 11 18  1  0  0  0  0
 12 13  1  0  0  0  0
 12 17  1  0  0  0  0
 13 14  1  0  0  0  0
 13 15  2  0  0  0  0
 15 16  1  0  0  0  0
 22 23  2  0  0  0  0
 22 24  1  0  0  0  0
 24 25  1  0  0  0  0
 24 41  1  0  0  0  0
 24 42  1  0  0  0  0
 25 26  2  0  0  0  0
 25 34  1  0  0  0  0
 26 27  1  0  0  0  0
 26 40  1  0  0  0  0
 27 28  2  0  0  0  0
 28 29  1  0  0  0  0
 28 39  1  0  0  0  0
 29 30  2  0  0  0  0
 29 34  1  0  0  0  0
 30 31  1  0  0  0  0
 30 38  1  0  0  0  0
 31 32  2  0  0  0  0
 31 37  1  0  0  0  0
 32 33  1  0  0  0  0
 32 36  1  0  0  0  0
 33 34  2  0  0  0  0
 33 35  1  0  0  0  0
 43 44  2  0  0  0  0
 43 46  1  0  0  0  0
 44 45  1  0  0  0  0
M  END
>  <MODEL>
       7

$$$$
