best_conformers_87.pdb
 OpenBabel02042510453D

 63 68  0  0  1  0  0  0  0  0999 V2000
    5.0620   -8.1640   25.4310 C   0  0  0  0  0  0  0  0  0  0  0  0
    4.5730   -6.9520   24.8120 N   0  0  0  0  0  0  0  0  0  0  0  0
    5.2130   -6.5080   23.7020 C   0  0  0  0  0  0  0  0  0  0  0  0
    6.2230   -7.0320   23.2540 O   0  0  0  0  0  0  0  0  0  0  0  0
    4.5900   -5.2590   23.0850 C   0  0  0  0  0  0  0  0  0  0  0  0
    5.1760   -4.0680   23.6510 N   0  0  0  0  0  0  0  0  0  0  0  0
    6.4900   -3.6510   23.2030 C   0  0  0  0  0  0  0  0  0  0  0  0
    6.5410   -2.1310   22.9610 C   0  0  2  0  0  0  0  0  0  0  0  0
    5.7100   -1.7840   21.7160 C   0  0  0  0  0  0  0  0  0  0  0  0
    4.6130   -2.2090   21.4260 O   0  0  0  0  0  0  0  0  0  0  0  0
    6.4150   -0.8830   20.9590 N   0  0  0  0  0  0  0  0  0  0  0  0
    5.8230   -0.2070   19.8680 C   0  0  0  0  0  0  0  0  0  0  0  0
    6.2880   -0.4530   18.6020 C   0  0  0  0  0  0  0  0  0  0  0  0
    5.8060    0.1190   17.4720 N   0  0  0  0  0  0  0  0  0  0  0  0
    4.8210    0.9760   17.6170 C   0  0  0  0  0  0  0  0  0  0  0  0
    4.2590    1.3390   18.8750 C   0  0  0  0  0  0  0  0  0  0  0  0
    3.2140    2.2960   18.9580 C   0  0  0  0  0  0  0  0  0  0  0  0
    2.6950    2.6540   20.1710 C   0  0  0  0  0  0  0  0  0  0  0  0
    3.2000    2.0740   21.3580 C   0  0  0  0  0  0  0  0  0  0  0  0
    4.2130    1.1450   21.3120 C   0  0  0  0  0  0  0  0  0  0  0  0
    4.7630    0.7420   20.0530 C   0  0  0  0  0  0  0  0  0  0  0  0
    4.5980    0.7310   22.2480 H   0  0  0  0  0  0  0  0  0  0  0  0
    2.7850    2.3810   22.3150 H   0  0  0  0  0  0  0  0  0  0  0  0
    1.8970    3.3910   20.2330 H   0  0  0  0  0  0  0  0  0  0  0  0
    2.8480    2.7450   18.0390 H   0  0  0  0  0  0  0  0  0  0  0  0
    4.4290    1.4480   16.7150 H   0  0  0  0  0  0  0  0  0  0  0  0
    7.0830   -1.1850   18.4640 H   0  0  0  0  0  0  0  0  0  0  0  0
    7.7720   -0.6470   21.4000 C   0  0  0  0  0  0  0  0  0  0  0  0
    7.9610   -1.5830   22.6190 C   0  0  2  0  0  0  0  0  0  0  0  0
    9.0390   -2.6580   22.3790 C   0  0  0  0  0  0  0  0  0  0  0  0
   10.3840   -2.1250   22.2510 N   0  0  0  0  0  0  0  0  0  0  0  0
   11.1990   -1.4960   23.1350 C   0  0  0  0  0  0  0  0  0  0  0  0
   12.3120   -1.0930   22.4260 C   0  0  0  0  0  0  0  0  0  0  0  0
   12.0770   -1.5450   21.1130 C   0  0  0  0  0  0  0  0  0  0  0  0
   10.9100   -2.1600   21.0280 N   0  0  0  0  0  0  0  0  0  0  0  0
   12.6980   -1.4480   20.2300 H   0  0  0  0  0  0  0  0  0  0  0  0
   13.1640   -0.5400   22.8000 H   0  0  0  0  0  0  0  0  0  0  0  0
   10.9630   -1.4010   24.1910 H   0  0  0  0  0  0  0  0  0  0  0  0
    9.0260   -3.4210   23.1600 H   0  0  0  0  0  0  0  0  0  0  0  0
    8.8730   -3.1510   21.4210 H   0  0  0  0  0  0  0  0  0  0  0  0
    8.3190   -1.0200   23.4870 H   0  0  0  0  0  0  0  0  0  0  0  0
    8.4780   -0.8500   20.5880 H   0  0  0  0  0  0  0  0  0  0  0  0
    7.8920    0.4110   21.6690 H   0  0  0  0  0  0  0  0  0  0  0  0
    5.9360   -1.4470   24.1850 C   0  0  0  0  0  0  0  0  0  0  0  0
    6.2270   -0.1070   24.4640 C   0  0  0  0  0  0  0  0  0  0  0  0
    5.6720    0.5040   25.5760 C   0  0  0  0  0  0  0  0  0  0  0  0
    6.0680    2.1680   25.9020 Cl  0  0  0  0  0  0  0  0  0  0  0  0
    4.8080   -0.1740   26.4340 C   0  0  0  0  0  0  0  0  0  0  0  0
    4.4850   -1.4830   26.1410 C   0  0  0  0  0  0  0  0  0  0  0  0
    5.0310   -2.1070   25.0240 C   0  0  0  0  0  0  0  0  0  0  0  0
    4.5710   -3.4910   24.7230 C   0  0  0  0  0  0  0  0  0  0  0  0
    3.6860   -4.0560   25.3670 O   0  0  0  0  0  0  0  0  0  0  0  0
    3.7970   -2.0580   26.7510 H   0  0  0  0  0  0  0  0  0  0  0  0
    4.3870    0.3390   27.2920 H   0  0  0  0  0  0  0  0  0  0  0  0
    6.8960    0.4680   23.8290 H   0  0  0  0  0  0  0  0  0  0  0  0
    6.7190   -4.1990   22.2870 H   0  0  0  0  0  0  0  0  0  0  0  0
    7.2350   -3.9180   23.9620 H   0  0  0  0  0  0  0  0  0  0  0  0
    3.5160   -5.2240   23.2870 H   0  0  0  0  0  0  0  0  0  0  0  0
    4.7730   -5.2640   22.0070 H   0  0  0  0  0  0  0  0  0  0  0  0
    3.7920   -6.4400   25.2090 H   0  0  0  0  0  0  0  0  0  0  0  0
    5.1250   -8.9330   24.6610 H   0  0  0  0  0  0  0  0  0  0  0  0
    6.0740   -8.0120   25.8230 H   0  0  0  0  0  0  0  0  0  0  0  0
    4.3910   -8.5020   26.2260 H   0  0  0  0  0  0  0  0  0  0  0  0
  1  2  1  0  0  0  0
  1 61  1  0  0  0  0
  1 62  1  0  0  0  0
  1 63  1  0  0  0  0
  2  3  1  0  0  0  0
  2 60  1  0  0  0  0
  3  4  2  0  0  0  0
  3  5  1  0  0  0  0
  5  6  1  0  0  0  0
  5 58  1  0  0  0  0
  5 59  1  0  0  0  0
  6  7  1  0  0  0  0
  6 51  1  0  0  0  0
  7  8  1  0  0  0  0
  7 56  1  0  0  0  0
  7 57  1  0  0  0  0
  8  9  1  6  0  0  0
  8 29  1  0  0  0  0
  8 44  1  0  0  0  0
  9 10  2  0  0  0  0
  9 11  1  0  0  0  0
 11 12  1  0  0  0  0
 11 28  1  0  0  0  0
 12 13  2  0  0  0  0
 12 21  1  0  0  0  0
 13 14  1  0  0  0  0
 13 27  1  0  0  0  0
 14 15  2  0  0  0  0
 15 16  1  0  0  0  0
 15 26  1  0  0  0  0
 16 17  2  0  0  0  0
 16 21  1  0  0  0  0
 17 18  1  0  0  0  0
 17 25  1  0  0  0  0
 18 19  2  0  0  0  0
 18 24  1  0  0  0  0
 19 20  1  0  0  0  0
 19 23  1  0  0  0  0
 20 21  2  0  0  0  0
 20 22  1  0  0  0  0
 28 29  1  0  0  0  0
 28 42  1  0  0  0  0
 28 43  1  0  0  0  0
 29 30  1  0  0  0  0
 29 41  1  1  0  0  0
 30 31  1  0  0  0  0
 30 39  1  0  0  0  0
 30 40  1  0  0  0  0
 31 32  1  0  0  0  0
 31 35  1  0  0  0  0
 32 33  2  0  0  0  0
 32 38  1  0  0  0  0
 33 34  1  0  0  0  0
 33 37  1  0  0  0  0
 34 35  2  0  0  0  0
 34 36  1  0  0  0  0
 44 45  2  0  0  0  0
 44 50  1  0  0  0  0
 45 46  1  0  0  0  0
 45 55  1  0  0  0  0
 46 47  1  0  0  0  0
 46 48  2  0  0  0  0
 48 49  1  0  0  0  0
 48 54  1  0  0  0  0
 49 50  2  0  0  0  0
 49 53  1  0  0  0  0
 50 51  1  0  0  0  0
 51 52  2  0  0  0  0
M  END
>  <MODEL>
       1

$$$$
best_conformers_87.pdb
 OpenBabel02042510453D

 63 68  0  0  1  0  0  0  0  0999 V2000
    6.8180    4.9730   24.7290 C   0  0  0  0  0  0  0  0  0  0  0  0
    6.5880    3.6870   25.3570 N   0  0  0  0  0  0  0  0  0  0  0  0
    5.8820    2.7370   24.6720 C   0  0  0  0  0  0  0  0  0  0  0  0
    5.3420    2.9460   23.6000 O   0  0  0  0  0  0  0  0  0  0  0  0
    5.8240    1.3720   25.3710 C   0  0  0  0  0  0  0  0  0  0  0  0
    6.8640    0.5000   24.8340 N   0  0  0  0  0  0  0  0  0  0  0  0
    6.5260   -0.7310   24.1620 C   0  0  0  0  0  0  0  0  0  0  0  0
    7.4790   -1.0280   22.9750 C   0  0  2  0  0  0  0  0  0  0  0  0
    7.1920   -0.1060   21.7820 C   0  0  0  0  0  0  0  0  0  0  0  0
    7.5910    1.0220   21.5920 O   0  0  0  0  0  0  0  0  0  0  0  0
    6.3980   -0.8010   20.9060 N   0  0  0  0  0  0  0  0  0  0  0  0
    5.8110   -0.1690   19.8020 C   0  0  0  0  0  0  0  0  0  0  0  0
    6.2640   -0.4620   18.5460 C   0  0  0  0  0  0  0  0  0  0  0  0
    5.7870    0.1080   17.4160 N   0  0  0  0  0  0  0  0  0  0  0  0
    4.8140    0.9800   17.5560 C   0  0  0  0  0  0  0  0  0  0  0  0
    4.2400    1.3490   18.8070 C   0  0  0  0  0  0  0  0  0  0  0  0
    3.1850    2.2930   18.9090 C   0  0  0  0  0  0  0  0  0  0  0  0
    2.6510    2.6140   20.1260 C   0  0  0  0  0  0  0  0  0  0  0  0
    3.1450    2.0140   21.3080 C   0  0  0  0  0  0  0  0  0  0  0  0
    4.1670    1.1010   21.2370 C   0  0  0  0  0  0  0  0  0  0  0  0
    4.7460    0.7580   19.9830 C   0  0  0  0  0  0  0  0  0  0  0  0
    4.5530    0.6550   22.1510 H   0  0  0  0  0  0  0  0  0  0  0  0
    2.7370    2.2940   22.2750 H   0  0  0  0  0  0  0  0  0  0  0  0
    1.8440    3.3390   20.1970 H   0  0  0  0  0  0  0  0  0  0  0  0
    2.8230    2.7570   17.9960 H   0  0  0  0  0  0  0  0  0  0  0  0
    4.4300    1.4480   16.6490 H   0  0  0  0  0  0  0  0  0  0  0  0
    7.0750   -1.1800   18.4230 H   0  0  0  0  0  0  0  0  0  0  0  0
    6.1320   -2.1680   21.2680 C   0  0  0  0  0  0  0  0  0  0  0  0
    7.1610   -2.4310   22.3730 C   0  0  2  0  0  0  0  0  0  0  0  0
    6.6700   -3.4630   23.3950 C   0  0  0  0  0  0  0  0  0  0  0  0
    6.5250   -4.7900   22.8440 N   0  0  0  0  0  0  0  0  0  0  0  0
    7.3930   -5.8210   22.9190 C   0  0  0  0  0  0  0  0  0  0  0  0
    6.8340   -6.8590   22.2110 C   0  0  0  0  0  0  0  0  0  0  0  0
    5.6220   -6.3400   21.7250 C   0  0  0  0  0  0  0  0  0  0  0  0
    5.4420   -5.0810   22.1090 N   0  0  0  0  0  0  0  0  0  0  0  0
    4.8800   -6.8250   21.1060 H   0  0  0  0  0  0  0  0  0  0  0  0
    7.2180   -7.8590   22.0970 H   0  0  0  0  0  0  0  0  0  0  0  0
    8.3360   -5.7350   23.4430 H   0  0  0  0  0  0  0  0  0  0  0  0
    5.6790   -3.1750   23.7610 H   0  0  0  0  0  0  0  0  0  0  0  0
    7.3680   -3.5080   24.2360 H   0  0  0  0  0  0  0  0  0  0  0  0
    8.0720   -2.8200   21.9050 H   0  0  0  0  0  0  0  0  0  0  0  0
    5.0980   -2.3050   21.6190 H   0  0  0  0  0  0  0  0  0  0  0  0
    6.2580   -2.8210   20.4060 H   0  0  0  0  0  0  0  0  0  0  0  0
    8.9010   -0.8140   23.4200 C   0  0  0  0  0  0  0  0  0  0  0  0
    9.9550   -1.2370   22.6020 C   0  0  0  0  0  0  0  0  0  0  0  0
   11.2610   -1.1350   23.0420 C   0  0  0  0  0  0  0  0  0  0  0  0
   12.5650   -1.5710   21.9740 Cl  0  0  0  0  0  0  0  0  0  0  0  0
   11.5430   -0.7030   24.3390 C   0  0  0  0  0  0  0  0  0  0  0  0
   10.5000   -0.2370   25.1180 C   0  0  0  0  0  0  0  0  0  0  0  0
    9.1970   -0.1690   24.6230 C   0  0  0  0  0  0  0  0  0  0  0  0
    8.1430    0.6920   25.2710 C   0  0  0  0  0  0  0  0  0  0  0  0
    8.3910    1.5640   26.0960 O   0  0  0  0  0  0  0  0  0  0  0  0
   10.7060    0.1050   26.1220 H   0  0  0  0  0  0  0  0  0  0  0  0
   12.5680   -0.7060   24.6980 H   0  0  0  0  0  0  0  0  0  0  0  0
    9.7710   -1.6300   21.6080 H   0  0  0  0  0  0  0  0  0  0  0  0
    6.5970   -1.5420   24.8980 H   0  0  0  0  0  0  0  0  0  0  0  0
    5.4940   -0.6750   23.7960 H   0  0  0  0  0  0  0  0  0  0  0  0
    4.8370    0.9300   25.1880 H   0  0  0  0  0  0  0  0  0  0  0  0
    5.9500    1.4920   26.4540 H   0  0  0  0  0  0  0  0  0  0  0  0
    7.3300    3.3250   25.9490 H   0  0  0  0  0  0  0  0  0  0  0  0
    5.8650    5.3870   24.3950 H   0  0  0  0  0  0  0  0  0  0  0  0
    7.4760    4.8960   23.8540 H   0  0  0  0  0  0  0  0  0  0  0  0
    7.2640    5.6490   25.4650 H   0  0  0  0  0  0  0  0  0  0  0  0
  1  2  1  0  0  0  0
  1 61  1  0  0  0  0
  1 62  1  0  0  0  0
  1 63  1  0  0  0  0
  2  3  1  0  0  0  0
  2 60  1  0  0  0  0
  3  4  2  0  0  0  0
  3  5  1  0  0  0  0
  5  6  1  0  0  0  0
  5 58  1  0  0  0  0
  5 59  1  0  0  0  0
  6  7  1  0  0  0  0
  6 51  1  0  0  0  0
  7  8  1  0  0  0  0
  7 56  1  0  0  0  0
  7 57  1  0  0  0  0
  8  9  1  6  0  0  0
  8 29  1  0  0  0  0
  8 44  1  0  0  0  0
  9 10  2  0  0  0  0
  9 11  1  0  0  0  0
 11 12  1  0  0  0  0
 11 28  1  0  0  0  0
 12 13  2  0  0  0  0
 12 21  1  0  0  0  0
 13 14  1  0  0  0  0
 13 27  1  0  0  0  0
 14 15  2  0  0  0  0
 15 16  1  0  0  0  0
 15 26  1  0  0  0  0
 16 17  2  0  0  0  0
 16 21  1  0  0  0  0
 17 18  1  0  0  0  0
 17 25  1  0  0  0  0
 18 19  2  0  0  0  0
 18 24  1  0  0  0  0
 19 20  1  0  0  0  0
 19 23  1  0  0  0  0
 20 21  2  0  0  0  0
 20 22  1  0  0  0  0
 28 29  1  0  0  0  0
 28 42  1  0  0  0  0
 28 43  1  0  0  0  0
 29 30  1  0  0  0  0
 29 41  1  6  0  0  0
 30 31  1  0  0  0  0
 30 39  1  0  0  0  0
 30 40  1  0  0  0  0
 31 32  1  0  0  0  0
 31 35  1  0  0  0  0
 32 33  2  0  0  0  0
 32 38  1  0  0  0  0
 33 34  1  0  0  0  0
 33 37  1  0  0  0  0
 34 35  2  0  0  0  0
 34 36  1  0  0  0  0
 44 45  2  0  0  0  0
 44 50  1  0  0  0  0
 45 46  1  0  0  0  0
 45 55  1  0  0  0  0
 46 47  1  0  0  0  0
 46 48  2  0  0  0  0
 48 49  1  0  0  0  0
 48 54  1  0  0  0  0
 49 50  2  0  0  0  0
 49 53  1  0  0  0  0
 50 51  1  0  0  0  0
 51 52  2  0  0  0  0
M  END
>  <MODEL>
       2

$$$$
best_conformers_87.pdb
 OpenBabel02042510453D

 63 68  0  0  1  0  0  0  0  0999 V2000
    5.5920    0.1520   29.5170 C   0  0  0  0  0  0  0  0  0  0  0  0
    5.9670   -0.8790   28.5750 N   0  0  0  0  0  0  0  0  0  0  0  0
    5.4300   -0.8490   27.3300 C   0  0  0  0  0  0  0  0  0  0  0  0
    4.6170   -0.0100   26.9740 O   0  0  0  0  0  0  0  0  0  0  0  0
    5.9280   -1.9460   26.3990 C   0  0  0  0  0  0  0  0  0  0  0  0
    6.9270   -1.4150   25.4980 N   0  0  0  0  0  0  0  0  0  0  0  0
    6.5220   -0.7020   24.2980 C   0  0  0  0  0  0  0  0  0  0  0  0
    7.4380   -1.0440   23.0950 C   0  0  2  0  0  0  0  0  0  0  0  0
    7.0760   -0.0850   21.9620 C   0  0  0  0  0  0  0  0  0  0  0  0
    7.2810    1.1130   21.9220 O   0  0  0  0  0  0  0  0  0  0  0  0
    6.4170   -0.7900   20.9830 N   0  0  0  0  0  0  0  0  0  0  0  0
    5.8300   -0.1560   19.8710 C   0  0  0  0  0  0  0  0  0  0  0  0
    6.2770   -0.4590   18.6110 C   0  0  0  0  0  0  0  0  0  0  0  0
    5.8060    0.1060   17.4750 N   0  0  0  0  0  0  0  0  0  0  0  0
    4.8340    0.9800   17.6110 C   0  0  0  0  0  0  0  0  0  0  0  0
    4.2590    1.3550   18.8590 C   0  0  0  0  0  0  0  0  0  0  0  0
    3.2030    2.3000   18.9380 C   0  0  0  0  0  0  0  0  0  0  0  0
    2.6400    2.6150   20.1440 C   0  0  0  0  0  0  0  0  0  0  0  0
    3.1040    2.0000   21.3290 C   0  0  0  0  0  0  0  0  0  0  0  0
    4.1320    1.0930   21.2820 C   0  0  0  0  0  0  0  0  0  0  0  0
    4.7500    0.7630   20.0390 C   0  0  0  0  0  0  0  0  0  0  0  0
    4.4830    0.6340   22.2020 H   0  0  0  0  0  0  0  0  0  0  0  0
    2.6460    2.2530   22.2810 H   0  0  0  0  0  0  0  0  0  0  0  0
    1.8320    3.3400   20.1990 H   0  0  0  0  0  0  0  0  0  0  0  0
    2.8570    2.7610   18.0180 H   0  0  0  0  0  0  0  0  0  0  0  0
    4.4460    1.4340   16.7010 H   0  0  0  0  0  0  0  0  0  0  0  0
    7.0810   -1.1850   18.4900 H   0  0  0  0  0  0  0  0  0  0  0  0
    6.1750   -2.1820   21.2940 C   0  0  0  0  0  0  0  0  0  0  0  0
    7.1340   -2.4430   22.4650 C   0  0  2  0  0  0  0  0  0  0  0  0
    6.6280   -3.5140   23.4530 C   0  0  0  0  0  0  0  0  0  0  0  0
    6.4720   -4.7960   22.8040 N   0  0  0  0  0  0  0  0  0  0  0  0
    7.5290   -5.5360   22.4180 C   0  0  0  0  0  0  0  0  0  0  0  0
    7.0710   -6.4330   21.4830 C   0  0  0  0  0  0  0  0  0  0  0  0
    5.6880   -6.1520   21.3810 C   0  0  0  0  0  0  0  0  0  0  0  0
    5.3360   -5.1470   22.1780 N   0  0  0  0  0  0  0  0  0  0  0  0
    4.9290   -6.6370   20.7730 H   0  0  0  0  0  0  0  0  0  0  0  0
    7.6760   -7.0720   20.8660 H   0  0  0  0  0  0  0  0  0  0  0  0
    8.4960   -5.3760   22.8830 H   0  0  0  0  0  0  0  0  0  0  0  0
    5.6550   -3.2540   23.8600 H   0  0  0  0  0  0  0  0  0  0  0  0
    7.3490   -3.6250   24.2700 H   0  0  0  0  0  0  0  0  0  0  0  0
    8.0820   -2.8170   22.0480 H   0  0  0  0  0  0  0  0  0  0  0  0
    6.3760   -2.7970   20.4140 H   0  0  0  0  0  0  0  0  0  0  0  0
    5.1220   -2.3620   21.5620 H   0  0  0  0  0  0  0  0  0  0  0  0
    8.8810   -0.8910   23.5430 C   0  0  0  0  0  0  0  0  0  0  0  0
    9.9010   -0.5940   22.6290 C   0  0  0  0  0  0  0  0  0  0  0  0
   11.2120   -0.4860   23.0660 C   0  0  0  0  0  0  0  0  0  0  0  0
   12.4790   -0.1100   21.9310 Cl  0  0  0  0  0  0  0  0  0  0  0  0
   11.5540   -0.6690   24.4070 C   0  0  0  0  0  0  0  0  0  0  0  0
   10.5560   -1.0020   25.3030 C   0  0  0  0  0  0  0  0  0  0  0  0
    9.2390   -1.1240   24.8750 C   0  0  0  0  0  0  0  0  0  0  0  0
    8.2270   -1.5810   25.8620 C   0  0  0  0  0  0  0  0  0  0  0  0
    8.5410   -2.1120   26.9250 O   0  0  0  0  0  0  0  0  0  0  0  0
   10.7610   -1.1950   26.3520 H   0  0  0  0  0  0  0  0  0  0  0  0
   12.5860   -0.5840   24.7290 H   0  0  0  0  0  0  0  0  0  0  0  0
    9.6750   -0.4260   21.5810 H   0  0  0  0  0  0  0  0  0  0  0  0
    6.5530    0.3870   24.4450 H   0  0  0  0  0  0  0  0  0  0  0  0
    5.4810   -0.9750   24.0740 H   0  0  0  0  0  0  0  0  0  0  0  0
    6.3930   -2.7510   26.9710 H   0  0  0  0  0  0  0  0  0  0  0  0
    5.0810   -2.3440   25.8330 H   0  0  0  0  0  0  0  0  0  0  0  0
    6.8340   -1.3850   28.6910 H   0  0  0  0  0  0  0  0  0  0  0  0
    5.8280    1.1490   29.1290 H   0  0  0  0  0  0  0  0  0  0  0  0
    4.5120    0.1140   29.6890 H   0  0  0  0  0  0  0  0  0  0  0  0
    6.1130   -0.0160   30.4590 H   0  0  0  0  0  0  0  0  0  0  0  0
  1  2  1  0  0  0  0
  1 61  1  0  0  0  0
  1 62  1  0  0  0  0
  1 63  1  0  0  0  0
  2  3  1  0  0  0  0
  2 60  1  0  0  0  0
  3  4  2  0  0  0  0
  3  5  1  0  0  0  0
  5  6  1  0  0  0  0
  5 58  1  0  0  0  0
  5 59  1  0  0  0  0
  6  7  1  0  0  0  0
  6 51  1  0  0  0  0
  7  8  1  0  0  0  0
  7 56  1  0  0  0  0
  7 57  1  0  0  0  0
  8  9  1  6  0  0  0
  8 29  1  0  0  0  0
  8 44  1  0  0  0  0
  9 10  2  0  0  0  0
  9 11  1  0  0  0  0
 11 12  1  0  0  0  0
 11 28  1  0  0  0  0
 12 13  2  0  0  0  0
 12 21  1  0  0  0  0
 13 14  1  0  0  0  0
 13 27  1  0  0  0  0
 14 15  2  0  0  0  0
 15 16  1  0  0  0  0
 15 26  1  0  0  0  0
 16 17  2  0  0  0  0
 16 21  1  0  0  0  0
 17 18  1  0  0  0  0
 17 25  1  0  0  0  0
 18 19  2  0  0  0  0
 18 24  1  0  0  0  0
 19 20  1  0  0  0  0
 19 23  1  0  0  0  0
 20 21  2  0  0  0  0
 20 22  1  0  0  0  0
 28 29  1  0  0  0  0
 28 42  1  0  0  0  0
 28 43  1  0  0  0  0
 29 30  1  0  0  0  0
 29 41  1  6  0  0  0
 30 31  1  0  0  0  0
 30 39  1  0  0  0  0
 30 40  1  0  0  0  0
 31 32  1  0  0  0  0
 31 35  1  0  0  0  0
 32 33  2  0  0  0  0
 32 38  1  0  0  0  0
 33 34  1  0  0  0  0
 33 37  1  0  0  0  0
 34 35  2  0  0  0  0
 34 36  1  0  0  0  0
 44 45  2  0  0  0  0
 44 50  1  0  0  0  0
 45 46  1  0  0  0  0
 45 55  1  0  0  0  0
 46 47  1  0  0  0  0
 46 48  2  0  0  0  0
 48 49  1  0  0  0  0
 48 54  1  0  0  0  0
 49 50  2  0  0  0  0
 49 53  1  0  0  0  0
 50 51  1  0  0  0  0
 51 52  2  0  0  0  0
M  END
>  <MODEL>
       3

$$$$
