best_conformers_79.pdb
 OpenBabel02042510453D

 40 42  0  0  0  0  0  0  0  0999 V2000
    7.9280   -0.5740   25.4990 C   0  0  0  0  0  0  0  0  0  0  0  0
    8.1080   -0.7170   25.2240 C   0  0  0  0  0  0  0  0  0  0  0  0
    7.1450   -1.5900   24.4810 C   0  0  0  0  0  0  0  0  0  0  0  0
    6.1380   -0.9170   23.5000 C   0  0  0  0  0  0  0  0  0  0  0  0
    6.7900    0.0860   22.6410 N   0  0  0  0  0  0  0  0  0  0  0  0
    6.9810    0.0330   21.2810 C   0  0  0  0  0  0  0  0  0  0  0  0
    7.7690    0.7720   20.7050 O   0  0  0  0  0  0  0  0  0  0  0  0
    6.1750   -0.9650   20.4400 C   0  0  0  0  0  0  0  0  0  0  0  0
    5.5720   -0.2570   19.2600 C   0  0  0  0  0  0  0  0  0  0  0  0
    6.1470   -0.3590   18.0240 C   0  0  0  0  0  0  0  0  0  0  0  0
    5.7630    0.3240   16.9160 N   0  0  0  0  0  0  0  0  0  0  0  0
    4.7650    1.1620   17.0560 C   0  0  0  0  0  0  0  0  0  0  0  0
    4.0820    1.3840   18.2810 C   0  0  0  0  0  0  0  0  0  0  0  0
    3.0440    2.3420   18.3840 C   0  0  0  0  0  0  0  0  0  0  0  0
    2.3950    2.5360   19.5730 C   0  0  0  0  0  0  0  0  0  0  0  0
    2.7590    1.7730   20.7070 C   0  0  0  0  0  0  0  0  0  0  0  0
    3.7700    0.8480   20.6350 C   0  0  0  0  0  0  0  0  0  0  0  0
    4.4750    0.6390   19.4170 C   0  0  0  0  0  0  0  0  0  0  0  0
    4.0340    0.2810   21.5230 H   0  0  0  0  0  0  0  0  0  0  0  0
    2.2360    1.9330   21.6470 H   0  0  0  0  0  0  0  0  0  0  0  0
    1.6030    3.2770   19.6530 H   0  0  0  0  0  0  0  0  0  0  0  0
    2.7890    2.9230   17.5000 H   0  0  0  0  0  0  0  0  0  0  0  0
    4.4500    1.7190   16.1720 H   0  0  0  0  0  0  0  0  0  0  0  0
    6.9950   -1.0280   17.8750 H   0  0  0  0  0  0  0  0  0  0  0  0
    6.8960   -1.7060   20.0710 H   0  0  0  0  0  0  0  0  0  0  0  0
    5.4240   -1.4960   21.0260 H   0  0  0  0  0  0  0  0  0  0  0  0
    7.5890    1.0650   23.3920 C   0  0  0  0  0  0  0  0  0  0  0  0
    8.6110    0.3280   24.3080 C   0  0  0  0  0  0  0  0  0  0  0  0
    9.3720    1.0800   24.6250 H   0  0  0  0  0  0  0  0  0  0  0  0
    9.1990   -0.2630   23.5570 H   0  0  0  0  0  0  0  0  0  0  0  0
    6.9110    1.7250   23.9490 H   0  0  0  0  0  0  0  0  0  0  0  0
    8.1060    1.6760   22.6530 H   0  0  0  0  0  0  0  0  0  0  0  0
    5.3090   -0.4360   24.0340 H   0  0  0  0  0  0  0  0  0  0  0  0
    5.6930   -1.6970   22.8830 H   0  0  0  0  0  0  0  0  0  0  0  0
    6.5820   -2.4050   24.9970 H   0  0  0  0  0  0  0  0  0  0  0  0
    7.8070   -2.1600   23.7780 H   0  0  0  0  0  0  0  0  0  0  0  0
    8.8430   -1.3690   25.7970 H   0  0  0  0  0  0  0  0  0  0  0  0
    7.0890    0.2220   25.8810 H   0  0  0  0  0  0  0  0  0  0  0  0
    7.2830   -0.9450   26.7940 H   0  0  0  0  0  0  0  0  0  0  0  0
    8.7360    0.1250   26.6570 H   0  0  0  0  0  0  0  0  0  0  0  0
  1  2  1  0  0  0  0
  1 38  1  0  0  0  0
  1 39  1  0  0  0  0
  1 40  1  0  0  0  0
  2  3  1  0  0  0  0
  2 28  1  0  0  0  0
  2 37  1  0  0  0  0
  3  4  1  0  0  0  0
  3 35  1  0  0  0  0
  3 36  1  0  0  0  0
  4  5  1  0  0  0  0
  4 33  1  0  0  0  0
  4 34  1  0  0  0  0
  5  6  1  0  0  0  0
  5 27  1  0  0  0  0
  6  7  2  0  0  0  0
  6  8  1  0  0  0  0
  8  9  1  0  0  0  0
  8 25  1  0  0  0  0
  8 26  1  0  0  0  0
  9 10  2  0  0  0  0
  9 18  1  0  0  0  0
 10 11  1  0  0  0  0
 10 24  1  0  0  0  0
 11 12  2  0  0  0  0
 12 13  1  0  0  0  0
 12 23  1  0  0  0  0
 13 14  2  0  0  0  0
 13 18  1  0  0  0  0
 14 15  1  0  0  0  0
 14 22  1  0  0  0  0
 15 16  2  0  0  0  0
 15 21  1  0  0  0  0
 16 17  1  0  0  0  0
 16 20  1  0  0  0  0
 17 18  2  0  0  0  0
 17 19  1  0  0  0  0
 27 28  1  0  0  0  0
 27 31  1  0  0  0  0
 27 32  1  0  0  0  0
 28 29  1  0  0  0  0
 28 30  1  0  0  0  0
M  END
>  <MODEL>
       1

$$$$
best_conformers_79.pdb
 OpenBabel02042510453D

 40 42  0  0  0  0  0  0  0  0999 V2000
    7.9280   -0.5790   25.4830 C   0  0  0  0  0  0  0  0  0  0  0  0
    8.1060   -0.7210   25.2090 C   0  0  0  0  0  0  0  0  0  0  0  0
    8.5970    0.3340   24.3040 C   0  0  0  0  0  0  0  0  0  0  0  0
    7.5720    1.0600   23.3970 C   0  0  0  0  0  0  0  0  0  0  0  0
    6.8100    0.0690   22.6290 N   0  0  0  0  0  0  0  0  0  0  0  0
    6.9660    0.0660   21.2660 C   0  0  0  0  0  0  0  0  0  0  0  0
    7.6920    0.8640   20.6930 O   0  0  0  0  0  0  0  0  0  0  0  0
    6.2040   -0.9590   20.4140 C   0  0  0  0  0  0  0  0  0  0  0  0
    5.5930   -0.2580   19.2350 C   0  0  0  0  0  0  0  0  0  0  0  0
    6.1590   -0.3550   17.9940 C   0  0  0  0  0  0  0  0  0  0  0  0
    5.7640    0.3320   16.8920 N   0  0  0  0  0  0  0  0  0  0  0  0
    4.7640    1.1640   17.0470 C   0  0  0  0  0  0  0  0  0  0  0  0
    4.0870    1.3810   18.2760 C   0  0  0  0  0  0  0  0  0  0  0  0
    3.0500    2.3380   18.3950 C   0  0  0  0  0  0  0  0  0  0  0  0
    2.4250    2.5360   19.5950 C   0  0  0  0  0  0  0  0  0  0  0  0
    2.8150    1.7850   20.7260 C   0  0  0  0  0  0  0  0  0  0  0  0
    3.8240    0.8600   20.6380 C   0  0  0  0  0  0  0  0  0  0  0  0
    4.5000    0.6410   19.4070 C   0  0  0  0  0  0  0  0  0  0  0  0
    4.1160    0.3060   21.5260 H   0  0  0  0  0  0  0  0  0  0  0  0
    2.3160    1.9530   21.6750 H   0  0  0  0  0  0  0  0  0  0  0  0
    1.6340    3.2730   19.6860 H   0  0  0  0  0  0  0  0  0  0  0  0
    2.7780    2.9150   17.5150 H   0  0  0  0  0  0  0  0  0  0  0  0
    4.4480    1.7290   16.1710 H   0  0  0  0  0  0  0  0  0  0  0  0
    7.0080   -1.0210   17.8350 H   0  0  0  0  0  0  0  0  0  0  0  0
    5.4560   -1.5150   20.9810 H   0  0  0  0  0  0  0  0  0  0  0  0
    6.9440   -1.6850   20.0530 H   0  0  0  0  0  0  0  0  0  0  0  0
    6.1450   -0.9330   23.4790 C   0  0  0  0  0  0  0  0  0  0  0  0
    7.1440   -1.5970   24.4760 C   0  0  0  0  0  0  0  0  0  0  0  0
    6.5560   -2.3950   24.9850 H   0  0  0  0  0  0  0  0  0  0  0  0
    7.8070   -2.1740   23.7870 H   0  0  0  0  0  0  0  0  0  0  0  0
    5.7250   -1.7220   22.8490 H   0  0  0  0  0  0  0  0  0  0  0  0
    5.3120   -0.4460   24.0120 H   0  0  0  0  0  0  0  0  0  0  0  0
    8.0880    1.6960   22.6830 H   0  0  0  0  0  0  0  0  0  0  0  0
    6.8670    1.6800   23.9650 H   0  0  0  0  0  0  0  0  0  0  0  0
    9.1890   -0.2210   23.5370 H   0  0  0  0  0  0  0  0  0  0  0  0
    9.3540    1.0860   24.6270 H   0  0  0  0  0  0  0  0  0  0  0  0
    8.8460   -1.3660   25.7770 H   0  0  0  0  0  0  0  0  0  0  0  0
    8.7920    0.0860   26.6320 H   0  0  0  0  0  0  0  0  0  0  0  0
    7.2840   -0.8770   26.7680 H   0  0  0  0  0  0  0  0  0  0  0  0
    7.1260    0.2420   25.8930 H   0  0  0  0  0  0  0  0  0  0  0  0
  1  2  1  0  0  0  0
  1 38  1  0  0  0  0
  1 39  1  0  0  0  0
  1 40  1  0  0  0  0
  2  3  1  0  0  0  0
  2 28  1  0  0  0  0
  2 37  1  0  0  0  0
  3  4  1  0  0  0  0
  3 35  1  0  0  0  0
  3 36  1  0  0  0  0
  4  5  1  0  0  0  0
  4 33  1  0  0  0  0
  4 34  1  0  0  0  0
  5  6  1  0  0  0  0
  5 27  1  0  0  0  0
  6  7  2  0  0  0  0
  6  8  1  0  0  0  0
  8  9  1  0  0  0  0
  8 25  1  0  0  0  0
  8 26  1  0  0  0  0
  9 10  2  0  0  0  0
  9 18  1  0  0  0  0
 10 11  1  0  0  0  0
 10 24  1  0  0  0  0
 11 12  2  0  0  0  0
 12 13  1  0  0  0  0
 12 23  1  0  0  0  0
 13 14  2  0  0  0  0
 13 18  1  0  0  0  0
 14 15  1  0  0  0  0
 14 22  1  0  0  0  0
 15 16  2  0  0  0  0
 15 21  1  0  0  0  0
 16 17  1  0  0  0  0
 16 20  1  0  0  0  0
 17 18  2  0  0  0  0
 17 19  1  0  0  0  0
 27 28  1  0  0  0  0
 27 31  1  0  0  0  0
 27 32  1  0  0  0  0
 28 29  1  0  0  0  0
 28 30  1  0  0  0  0
M  END
>  <MODEL>
       2

$$$$
