best_conformers_6.pdb
 OpenBabel02042510453D

 65 69  0  0  0  0  0  0  0  0999 V2000
    6.5030   -2.3450   29.3650 C   0  0  0  0  0  0  0  0  0  0  0  0
    6.9310   -2.9190   28.0130 C   0  0  0  0  0  0  0  0  0  0  0  0
    5.8430   -3.8210   27.4780 C   0  0  0  0  0  0  0  0  0  0  0  0
    5.3680   -4.7610   28.0650 O   0  0  0  0  0  0  0  0  0  0  0  0
    5.2780   -3.5180   26.1180 N   0  3  0  0  0  0  0  0  0  0  0  0
    4.0570   -2.5740   26.1690 C   0  0  0  0  0  0  0  0  0  0  0  0
    4.5200   -1.1320   26.1640 C   0  0  0  0  0  0  0  0  0  0  0  0
    5.3080   -0.8270   24.8880 C   0  0  0  0  0  0  0  0  0  0  0  0
    6.3830   -1.8530   24.5770 C   0  0  0  0  0  0  0  0  0  0  0  0
    7.4450   -1.5610   23.6990 C   0  0  0  0  0  0  0  0  0  0  0  0
    7.5950   -0.2280   23.1940 N   0  0  0  0  0  0  0  0  0  0  0  0
    8.3600    0.7180   24.0190 C   0  0  0  0  0  0  0  0  0  0  0  0
    9.8620    0.5080   23.9490 C   0  0  0  0  0  0  0  0  0  0  0  0
   10.6290    1.1730   22.9940 C   0  0  0  0  0  0  0  0  0  0  0  0
   11.9930    0.9200   22.8820 C   0  0  0  0  0  0  0  0  0  0  0  0
   12.6150    0.0050   23.7240 C   0  0  0  0  0  0  0  0  0  0  0  0
   11.8480   -0.6410   24.6850 C   0  0  0  0  0  0  0  0  0  0  0  0
   12.6080   -1.8040   25.7360 Cl  0  0  0  0  0  0  0  0  0  0  0  0
   10.4870   -0.3950   24.8110 C   0  0  0  0  0  0  0  0  0  0  0  0
    9.9090   -0.9510   25.5450 H   0  0  0  0  0  0  0  0  0  0  0  0
   13.6760   -0.2130   23.6420 H   0  0  0  0  0  0  0  0  0  0  0  0
   12.5790    1.4360   22.1260 H   0  0  0  0  0  0  0  0  0  0  0  0
   10.1410    1.8770   22.3250 H   0  0  0  0  0  0  0  0  0  0  0  0
    8.0300    0.5830   25.0550 H   0  0  0  0  0  0  0  0  0  0  0  0
    8.1020    1.7300   23.6910 H   0  0  0  0  0  0  0  0  0  0  0  0
    7.3450    0.1190   21.8800 C   0  0  0  0  0  0  0  0  0  0  0  0
    7.7870    1.1490   21.4000 O   0  0  0  0  0  0  0  0  0  0  0  0
    6.4650   -0.8370   21.0410 C   0  0  0  0  0  0  0  0  0  0  0  0
    5.8170   -0.1710   19.8520 C   0  0  0  0  0  0  0  0  0  0  0  0
    6.2440   -0.4380   18.5780 C   0  0  0  0  0  0  0  0  0  0  0  0
    5.7660    0.1370   17.4410 N   0  0  0  0  0  0  0  0  0  0  0  0
    4.7960    1.0090   17.5860 C   0  0  0  0  0  0  0  0  0  0  0  0
    4.2330    1.3750   18.8400 C   0  0  0  0  0  0  0  0  0  0  0  0
    3.1820    2.3240   18.9430 C   0  0  0  0  0  0  0  0  0  0  0  0
    2.6590    2.6550   20.1630 C   0  0  0  0  0  0  0  0  0  0  0  0
    3.1690    2.0520   21.3350 C   0  0  0  0  0  0  0  0  0  0  0  0
    4.1900    1.1360   21.2620 C   0  0  0  0  0  0  0  0  0  0  0  0
    4.7550    0.7710   20.0090 C   0  0  0  0  0  0  0  0  0  0  0  0
    4.5730    0.6870   22.1750 H   0  0  0  0  0  0  0  0  0  0  0  0
    2.7510    2.3230   22.3010 H   0  0  0  0  0  0  0  0  0  0  0  0
    1.8570    3.3850   20.2410 H   0  0  0  0  0  0  0  0  0  0  0  0
    2.8080    2.7850   18.0310 H   0  0  0  0  0  0  0  0  0  0  0  0
    4.4020    1.4760   16.6810 H   0  0  0  0  0  0  0  0  0  0  0  0
    7.0350   -1.1690   18.4050 H   0  0  0  0  0  0  0  0  0  0  0  0
    5.7210   -1.3170   21.6890 H   0  0  0  0  0  0  0  0  0  0  0  0
    7.1110   -1.6530   20.6870 H   0  0  0  0  0  0  0  0  0  0  0  0
    8.3630   -2.5400   23.3230 C   0  0  0  0  0  0  0  0  0  0  0  0
    8.2440   -3.8330   23.8280 C   0  0  0  0  0  0  0  0  0  0  0  0
    7.2150   -4.1320   24.7140 C   0  0  0  0  0  0  0  0  0  0  0  0
    6.3040   -3.1460   25.0890 C   0  0  0  0  0  0  0  0  0  0  0  0
    7.1040   -5.1280   25.1330 H   0  0  0  0  0  0  0  0  0  0  0  0
    8.9570   -4.6010   23.5430 H   0  0  0  0  0  0  0  0  0  0  0  0
    9.1950   -2.2830   22.6640 H   0  0  0  0  0  0  0  0  0  0  0  0
    5.7550    0.1710   24.9360 H   0  0  0  0  0  0  0  0  0  0  0  0
    4.6060   -0.8080   24.0400 H   0  0  0  0  0  0  0  0  0  0  0  0
    3.6470   -0.4750   26.2360 H   0  0  0  0  0  0  0  0  0  0  0  0
    5.1340   -0.9360   27.0500 H   0  0  0  0  0  0  0  0  0  0  0  0
    3.4430   -2.7780   25.2900 H   0  0  0  0  0  0  0  0  0  0  0  0
    3.4760   -2.8140   27.0610 H   0  0  0  0  0  0  0  0  0  0  0  0
    4.9120   -4.4570   25.8560 H   0  0  0  0  0  0  0  0  0  0  0  0
    7.8410   -3.5220   28.1030 H   0  0  0  0  0  0  0  0  0  0  0  0
    7.1460   -2.1470   27.2700 H   0  0  0  0  0  0  0  0  0  0  0  0
    6.3280   -3.1540   30.0780 H   0  0  0  0  0  0  0  0  0  0  0  0
    7.2660   -1.6970   29.7920 H   0  0  0  0  0  0  0  0  0  0  0  0
    5.5760   -1.7630   29.2710 H   0  0  0  0  0  0  0  0  0  0  0  0
  1  2  1  0  0  0  0
  1 63  1  0  0  0  0
  1 64  1  0  0  0  0
  1 65  1  0  0  0  0
  2  3  1  0  0  0  0
  2 61  1  0  0  0  0
  2 62  1  0  0  0  0
  3  4  2  0  0  0  0
  3  5  1  0  0  0  0
  5  6  1  0  0  0  0
  5 50  1  0  0  0  0
  5 60  1  0  0  0  0
  6  7  1  0  0  0  0
  6 58  1  0  0  0  0
  6 59  1  0  0  0  0
  7  8  1  0  0  0  0
  7 56  1  0  0  0  0
  7 57  1  0  0  0  0
  8  9  1  0  0  0  0
  8 54  1  0  0  0  0
  8 55  1  0  0  0  0
  9 10  2  0  0  0  0
  9 50  1  0  0  0  0
 10 11  1  0  0  0  0
 10 47  1  0  0  0  0
 11 12  1  0  0  0  0
 11 26  1  0  0  0  0
 12 13  1  0  0  0  0
 12 24  1  0  0  0  0
 12 25  1  0  0  0  0
 13 14  2  0  0  0  0
 13 19  1  0  0  0  0
 14 15  1  0  0  0  0
 14 23  1  0  0  0  0
 15 16  2  0  0  0  0
 15 22  1  0  0  0  0
 16 17  1  0  0  0  0
 16 21  1  0  0  0  0
 17 18  1  0  0  0  0
 17 19  2  0  0  0  0
 19 20  1  0  0  0  0
 26 27  2  0  0  0  0
 26 28  1  0  0  0  0
 28 29  1  0  0  0  0
 28 45  1  0  0  0  0
 28 46  1  0  0  0  0
 29 30  2  0  0  0  0
 29 38  1  0  0  0  0
 30 31  1  0  0  0  0
 30 44  1  0  0  0  0
 31 32  2  0  0  0  0
 32 33  1  0  0  0  0
 32 43  1  0  0  0  0
 33 34  2  0  0  0  0
 33 38  1  0  0  0  0
 34 35  1  0  0  0  0
 34 42  1  0  0  0  0
 35 36  2  0  0  0  0
 35 41  1  0  0  0  0
 36 37  1  0  0  0  0
 36 40  1  0  0  0  0
 37 38  2  0  0  0  0
 37 39  1  0  0  0  0
 47 48  2  0  0  0  0
 47 53  1  0  0  0  0
 48 49  1  0  0  0  0
 48 52  1  0  0  0  0
 49 50  2  0  0  0  0
 49 51  1  0  0  0  0
M  CHG  1   5   1
M  END
>  <MODEL>
       1

$$$$
best_conformers_6.pdb
 OpenBabel02042510453D

 65 69  0  0  0  0  0  0  0  0999 V2000
    6.6250   -6.2030   21.8150 C   0  0  0  0  0  0  0  0  0  0  0  0
    6.2270   -5.1650   22.8640 C   0  0  0  0  0  0  0  0  0  0  0  0
    6.8610   -5.5510   24.1860 C   0  0  0  0  0  0  0  0  0  0  0  0
    6.8930   -6.6650   24.6370 O   0  0  0  0  0  0  0  0  0  0  0  0
    7.5430   -4.4670   24.9810 N   0  3  0  0  0  0  0  0  0  0  0  0
    9.0870   -4.4090   24.8210 C   0  0  0  0  0  0  0  0  0  0  0  0
    9.4590   -3.6030   23.5900 C   0  0  0  0  0  0  0  0  0  0  0  0
    8.9590   -2.1620   23.7040 C   0  0  0  0  0  0  0  0  0  0  0  0
    7.5100   -2.0640   24.1630 C   0  0  0  0  0  0  0  0  0  0  0  0
    6.7430   -0.9010   23.9610 C   0  0  0  0  0  0  0  0  0  0  0  0
    7.2530    0.1770   23.1720 N   0  0  0  0  0  0  0  0  0  0  0  0
    7.7120    1.3770   23.8730 C   0  0  0  0  0  0  0  0  0  0  0  0
    6.6810    2.4880   23.8400 C   0  0  0  0  0  0  0  0  0  0  0  0
    5.8300    2.7060   24.9220 C   0  0  0  0  0  0  0  0  0  0  0  0
    4.8470    3.6880   24.8510 C   0  0  0  0  0  0  0  0  0  0  0  0
    4.7010    4.4560   23.7020 C   0  0  0  0  0  0  0  0  0  0  0  0
    5.5400    4.2170   22.6170 C   0  0  0  0  0  0  0  0  0  0  0  0
    5.3040    5.1150   21.1360 Cl  0  0  0  0  0  0  0  0  0  0  0  0
    6.5330    3.2490   22.6770 C   0  0  0  0  0  0  0  0  0  0  0  0
    7.1760    3.0710   21.8180 H   0  0  0  0  0  0  0  0  0  0  0  0
    3.9240    5.2110   23.6320 H   0  0  0  0  0  0  0  0  0  0  0  0
    4.1870    3.8460   25.6990 H   0  0  0  0  0  0  0  0  0  0  0  0
    5.9260    2.0930   25.8190 H   0  0  0  0  0  0  0  0  0  0  0  0
    8.6290    1.6930   23.3680 H   0  0  0  0  0  0  0  0  0  0  0  0
    7.9580    1.0880   24.9020 H   0  0  0  0  0  0  0  0  0  0  0  0
    7.3600    0.1480   21.7960 C   0  0  0  0  0  0  0  0  0  0  0  0
    8.1340    0.8690   21.1850 O   0  0  0  0  0  0  0  0  0  0  0  0
    6.4680   -0.8330   21.0330 C   0  0  0  0  0  0  0  0  0  0  0  0
    5.8130   -0.1760   19.8500 C   0  0  0  0  0  0  0  0  0  0  0  0
    6.2630   -0.4280   18.5840 C   0  0  0  0  0  0  0  0  0  0  0  0
    5.7870    0.1370   17.4430 N   0  0  0  0  0  0  0  0  0  0  0  0
    4.8100    1.0020   17.5840 C   0  0  0  0  0  0  0  0  0  0  0  0
    4.2440    1.3740   18.8370 C   0  0  0  0  0  0  0  0  0  0  0  0
    3.1970    2.3260   18.9390 C   0  0  0  0  0  0  0  0  0  0  0  0
    2.6760    2.6590   20.1580 C   0  0  0  0  0  0  0  0  0  0  0  0
    3.1710    2.0480   21.3320 C   0  0  0  0  0  0  0  0  0  0  0  0
    4.1850    1.1230   21.2610 C   0  0  0  0  0  0  0  0  0  0  0  0
    4.7550    0.7690   20.0090 C   0  0  0  0  0  0  0  0  0  0  0  0
    4.5680    0.6840   22.1790 H   0  0  0  0  0  0  0  0  0  0  0  0
    2.7490    2.3170   22.2960 H   0  0  0  0  0  0  0  0  0  0  0  0
    1.8780    3.3930   20.2290 H   0  0  0  0  0  0  0  0  0  0  0  0
    2.8230    2.7890   18.0290 H   0  0  0  0  0  0  0  0  0  0  0  0
    4.4200    1.4620   16.6750 H   0  0  0  0  0  0  0  0  0  0  0  0
    7.0650   -1.1510   18.4480 H   0  0  0  0  0  0  0  0  0  0  0  0
    7.1200   -1.6550   20.7040 H   0  0  0  0  0  0  0  0  0  0  0  0
    5.7260   -1.2410   21.7200 H   0  0  0  0  0  0  0  0  0  0  0  0
    5.5020   -0.7520   24.5680 C   0  0  0  0  0  0  0  0  0  0  0  0
    4.9390   -1.7950   25.2960 C   0  0  0  0  0  0  0  0  0  0  0  0
    5.6370   -2.9830   25.4320 C   0  0  0  0  0  0  0  0  0  0  0  0
    6.9050   -3.1120   24.8670 C   0  0  0  0  0  0  0  0  0  0  0  0
    5.2040   -3.8150   25.9820 H   0  0  0  0  0  0  0  0  0  0  0  0
    3.9540   -1.6890   25.7380 H   0  0  0  0  0  0  0  0  0  0  0  0
    4.9610    0.1750   24.4320 H   0  0  0  0  0  0  0  0  0  0  0  0
    9.5920   -1.6230   24.4260 H   0  0  0  0  0  0  0  0  0  0  0  0
    9.0840   -1.6510   22.7450 H   0  0  0  0  0  0  0  0  0  0  0  0
   10.5480   -3.6110   23.4730 H   0  0  0  0  0  0  0  0  0  0  0  0
    9.0480   -4.0850   22.6950 H   0  0  0  0  0  0  0  0  0  0  0  0
    9.4720   -5.4320   24.7900 H   0  0  0  0  0  0  0  0  0  0  0  0
    9.4610   -3.9220   25.7250 H   0  0  0  0  0  0  0  0  0  0  0  0
    7.3870   -4.8170   25.9560 H   0  0  0  0  0  0  0  0  0  0  0  0
    5.1400   -5.0990   22.9890 H   0  0  0  0  0  0  0  0  0  0  0  0
    6.5670   -4.1540   22.6080 H   0  0  0  0  0  0  0  0  0  0  0  0
    7.7070   -6.3360   21.8490 H   0  0  0  0  0  0  0  0  0  0  0  0
    6.1740   -7.1860   22.0040 H   0  0  0  0  0  0  0  0  0  0  0  0
    6.3660   -5.8780   20.8050 H   0  0  0  0  0  0  0  0  0  0  0  0
  1  2  1  0  0  0  0
  1 63  1  0  0  0  0
  1 64  1  0  0  0  0
  1 65  1  0  0  0  0
  2  3  1  0  0  0  0
  2 61  1  0  0  0  0
  2 62  1  0  0  0  0
  3  4  2  0  0  0  0
  3  5  1  0  0  0  0
  5  6  1  0  0  0  0
  5 50  1  0  0  0  0
  5 60  1  0  0  0  0
  6  7  1  0  0  0  0
  6 58  1  0  0  0  0
  6 59  1  0  0  0  0
  7  8  1  0  0  0  0
  7 56  1  0  0  0  0
  7 57  1  0  0  0  0
  8  9  1  0  0  0  0
  8 54  1  0  0  0  0
  8 55  1  0  0  0  0
  9 10  2  0  0  0  0
  9 50  1  0  0  0  0
 10 11  1  0  0  0  0
 10 47  1  0  0  0  0
 11 12  1  0  0  0  0
 11 26  1  0  0  0  0
 12 13  1  0  0  0  0
 12 24  1  0  0  0  0
 12 25  1  0  0  0  0
 13 14  2  0  0  0  0
 13 19  1  0  0  0  0
 14 15  1  0  0  0  0
 14 23  1  0  0  0  0
 15 16  2  0  0  0  0
 15 22  1  0  0  0  0
 16 17  1  0  0  0  0
 16 21  1  0  0  0  0
 17 18  1  0  0  0  0
 17 19  2  0  0  0  0
 19 20  1  0  0  0  0
 26 27  2  0  0  0  0
 26 28  1  0  0  0  0
 28 29  1  0  0  0  0
 28 45  1  0  0  0  0
 28 46  1  0  0  0  0
 29 30  2  0  0  0  0
 29 38  1  0  0  0  0
 30 31  1  0  0  0  0
 30 44  1  0  0  0  0
 31 32  2  0  0  0  0
 32 33  1  0  0  0  0
 32 43  1  0  0  0  0
 33 34  2  0  0  0  0
 33 38  1  0  0  0  0
 34 35  1  0  0  0  0
 34 42  1  0  0  0  0
 35 36  2  0  0  0  0
 35 41  1  0  0  0  0
 36 37  1  0  0  0  0
 36 40  1  0  0  0  0
 37 38  2  0  0  0  0
 37 39  1  0  0  0  0
 47 48  2  0  0  0  0
 47 53  1  0  0  0  0
 48 49  1  0  0  0  0
 48 52  1  0  0  0  0
 49 50  2  0  0  0  0
 49 51  1  0  0  0  0
M  CHG  1   5   1
M  END
>  <MODEL>
       2

$$$$
best_conformers_6.pdb
 OpenBabel02042510453D

 65 69  0  0  0  0  0  0  0  0999 V2000
    5.5970   -0.1170   30.0860 C   0  0  0  0  0  0  0  0  0  0  0  0
    5.7870   -0.9070   28.7880 C   0  0  0  0  0  0  0  0  0  0  0  0
    4.4890   -1.0080   28.0220 C   0  0  0  0  0  0  0  0  0  0  0  0
    3.4760   -1.5230   28.4230 O   0  0  0  0  0  0  0  0  0  0  0  0
    4.4530   -0.3860   26.6730 N   0  3  0  0  0  0  0  0  0  0  0  0
    4.4060    1.1410   26.7580 C   0  0  0  0  0  0  0  0  0  0  0  0
    4.5600    1.7410   25.3790 C   0  0  0  0  0  0  0  0  0  0  0  0
    5.9170    1.3600   24.7920 C   0  0  0  0  0  0  0  0  0  0  0  0
    6.1490   -0.1380   24.8070 C   0  0  0  0  0  0  0  0  0  0  0  0
    7.0760   -0.7430   23.9350 C   0  0  0  0  0  0  0  0  0  0  0  0
    7.8090    0.0780   23.0230 N   0  0  0  0  0  0  0  0  0  0  0  0
    9.0110    0.7470   23.5370 C   0  0  0  0  0  0  0  0  0  0  0  0
   10.2420   -0.1380   23.4760 C   0  0  0  0  0  0  0  0  0  0  0  0
   11.0870   -0.1040   22.3700 C   0  0  0  0  0  0  0  0  0  0  0  0
   12.1720   -0.9690   22.2780 C   0  0  0  0  0  0  0  0  0  0  0  0
   12.4340   -1.8820   23.2920 C   0  0  0  0  0  0  0  0  0  0  0  0
   11.5910   -1.9070   24.3960 C   0  0  0  0  0  0  0  0  0  0  0  0
   11.9010   -3.0540   25.6690 Cl  0  0  0  0  0  0  0  0  0  0  0  0
   10.5040   -1.0470   24.5010 C   0  0  0  0  0  0  0  0  0  0  0  0
    9.8450   -1.1180   25.3640 H   0  0  0  0  0  0  0  0  0  0  0  0
   13.2760   -2.5680   23.2370 H   0  0  0  0  0  0  0  0  0  0  0  0
   12.8190   -0.9380   21.4060 H   0  0  0  0  0  0  0  0  0  0  0  0
   10.8700    0.5940   21.5700 H   0  0  0  0  0  0  0  0  0  0  0  0
    9.1630    1.6620   22.9540 H   0  0  0  0  0  0  0  0  0  0  0  0
    8.8100    1.0210   24.5760 H   0  0  0  0  0  0  0  0  0  0  0  0
    7.6030    0.0980   21.6550 C   0  0  0  0  0  0  0  0  0  0  0  0
    8.3070    0.7870   20.9270 O   0  0  0  0  0  0  0  0  0  0  0  0
    6.4990   -0.7940   21.0400 C   0  0  0  0  0  0  0  0  0  0  0  0
    5.8200   -0.1630   19.8490 C   0  0  0  0  0  0  0  0  0  0  0  0
    6.2400   -0.4380   18.5730 C   0  0  0  0  0  0  0  0  0  0  0  0
    5.7570    0.1350   17.4370 N   0  0  0  0  0  0  0  0  0  0  0  0
    4.7900    1.0100   17.5830 C   0  0  0  0  0  0  0  0  0  0  0  0
    4.2290    1.3770   18.8370 C   0  0  0  0  0  0  0  0  0  0  0  0
    3.1830    2.3330   18.9420 C   0  0  0  0  0  0  0  0  0  0  0  0
    2.6660    2.6670   20.1630 C   0  0  0  0  0  0  0  0  0  0  0  0
    3.1750    2.0580   21.3330 C   0  0  0  0  0  0  0  0  0  0  0  0
    4.1870    1.1330   21.2590 C   0  0  0  0  0  0  0  0  0  0  0  0
    4.7500    0.7700   20.0060 C   0  0  0  0  0  0  0  0  0  0  0  0
    4.5610    0.6700   22.1710 H   0  0  0  0  0  0  0  0  0  0  0  0
    2.7560    2.3350   22.2990 H   0  0  0  0  0  0  0  0  0  0  0  0
    1.8680    3.4020   20.2430 H   0  0  0  0  0  0  0  0  0  0  0  0
    2.8110    2.7950   18.0310 H   0  0  0  0  0  0  0  0  0  0  0  0
    4.3990    1.4790   16.6790 H   0  0  0  0  0  0  0  0  0  0  0  0
    7.0300   -1.1700   18.4010 H   0  0  0  0  0  0  0  0  0  0  0  0
    5.7750   -1.1140   21.7990 H   0  0  0  0  0  0  0  0  0  0  0  0
    7.0070   -1.7090   20.7000 H   0  0  0  0  0  0  0  0  0  0  0  0
    7.2900   -2.1180   23.9520 C   0  0  0  0  0  0  0  0  0  0  0  0
    6.5540   -2.9210   24.8190 C   0  0  0  0  0  0  0  0  0  0  0  0
    5.6290   -2.3400   25.6790 C   0  0  0  0  0  0  0  0  0  0  0  0
    5.4490   -0.9580   25.6860 C   0  0  0  0  0  0  0  0  0  0  0  0
    5.0330   -2.9530   26.3480 H   0  0  0  0  0  0  0  0  0  0  0  0
    6.6910   -3.9980   24.8180 H   0  0  0  0  0  0  0  0  0  0  0  0
    8.0270   -2.5560   23.2790 H   0  0  0  0  0  0  0  0  0  0  0  0
    6.7000    1.8530   25.3890 H   0  0  0  0  0  0  0  0  0  0  0  0
    6.0290    1.7450   23.7730 H   0  0  0  0  0  0  0  0  0  0  0  0
    3.7480    1.4010   24.7190 H   0  0  0  0  0  0  0  0  0  0  0  0
    4.4690    2.8310   25.4530 H   0  0  0  0  0  0  0  0  0  0  0  0
    3.4710    1.4510   27.2340 H   0  0  0  0  0  0  0  0  0  0  0  0
    5.2330    1.4580   27.4010 H   0  0  0  0  0  0  0  0  0  0  0  0
    3.4950   -0.7000   26.3740 H   0  0  0  0  0  0  0  0  0  0  0  0
    6.1220   -1.9300   28.9950 H   0  0  0  0  0  0  0  0  0  0  0  0
    6.5470   -0.4520   28.1440 H   0  0  0  0  0  0  0  0  0  0  0  0
    6.5330   -0.0580   30.6510 H   0  0  0  0  0  0  0  0  0  0  0  0
    4.8410   -0.5980   30.7140 H   0  0  0  0  0  0  0  0  0  0  0  0
    5.2550    0.9060   29.8770 H   0  0  0  0  0  0  0  0  0  0  0  0
  1  2  1  0  0  0  0
  1 63  1  0  0  0  0
  1 64  1  0  0  0  0
  1 65  1  0  0  0  0
  2  3  1  0  0  0  0
  2 61  1  0  0  0  0
  2 62  1  0  0  0  0
  3  4  2  0  0  0  0
  3  5  1  0  0  0  0
  5  6  1  0  0  0  0
  5 50  1  0  0  0  0
  5 60  1  0  0  0  0
  6  7  1  0  0  0  0
  6 58  1  0  0  0  0
  6 59  1  0  0  0  0
  7  8  1  0  0  0  0
  7 56  1  0  0  0  0
  7 57  1  0  0  0  0
  8  9  1  0  0  0  0
  8 54  1  0  0  0  0
  8 55  1  0  0  0  0
  9 10  2  0  0  0  0
  9 50  1  0  0  0  0
 10 11  1  0  0  0  0
 10 47  1  0  0  0  0
 11 12  1  0  0  0  0
 11 26  1  0  0  0  0
 12 13  1  0  0  0  0
 12 24  1  0  0  0  0
 12 25  1  0  0  0  0
 13 14  2  0  0  0  0
 13 19  1  0  0  0  0
 14 15  1  0  0  0  0
 14 23  1  0  0  0  0
 15 16  2  0  0  0  0
 15 22  1  0  0  0  0
 16 17  1  0  0  0  0
 16 21  1  0  0  0  0
 17 18  1  0  0  0  0
 17 19  2  0  0  0  0
 19 20  1  0  0  0  0
 26 27  2  0  0  0  0
 26 28  1  0  0  0  0
 28 29  1  0  0  0  0
 28 45  1  0  0  0  0
 28 46  1  0  0  0  0
 29 30  2  0  0  0  0
 29 38  1  0  0  0  0
 30 31  1  0  0  0  0
 30 44  1  0  0  0  0
 31 32  2  0  0  0  0
 32 33  1  0  0  0  0
 32 43  1  0  0  0  0
 33 34  2  0  0  0  0
 33 38  1  0  0  0  0
 34 35  1  0  0  0  0
 34 42  1  0  0  0  0
 35 36  2  0  0  0  0
 35 41  1  0  0  0  0
 36 37  1  0  0  0  0
 36 40  1  0  0  0  0
 37 38  2  0  0  0  0
 37 39  1  0  0  0  0
 47 48  2  0  0  0  0
 47 53  1  0  0  0  0
 48 49  1  0  0  0  0
 48 52  1  0  0  0  0
 49 50  2  0  0  0  0
 49 51  1  0  0  0  0
M  CHG  1   5   1
M  END
>  <MODEL>
       3

$$$$
best_conformers_6.pdb
 OpenBabel02042510453D

 65 69  0  0  0  0  0  0  0  0999 V2000
    5.7520   -5.5800   22.9260 C   0  0  0  0  0  0  0  0  0  0  0  0
    7.2160   -5.1560   23.0130 C   0  0  0  0  0  0  0  0  0  0  0  0
    7.7660   -5.3820   24.3980 C   0  0  0  0  0  0  0  0  0  0  0  0
    7.9050   -6.4670   24.9050 O   0  0  0  0  0  0  0  0  0  0  0  0
    8.1960   -4.1950   25.2040 N   0  3  0  0  0  0  0  0  0  0  0  0
    9.7140   -3.9240   25.0890 C   0  0  0  0  0  0  0  0  0  0  0  0
    9.9860   -3.1960   23.7900 C   0  0  0  0  0  0  0  0  0  0  0  0
    9.2500   -1.8530   23.7470 C   0  0  0  0  0  0  0  0  0  0  0  0
    7.8130   -1.9010   24.2470 C   0  0  0  0  0  0  0  0  0  0  0  0
    6.9100   -0.8470   23.9980 C   0  0  0  0  0  0  0  0  0  0  0  0
    7.3220    0.2480   23.1710 N   0  0  0  0  0  0  0  0  0  0  0  0
    7.7330    1.4990   23.8200 C   0  0  0  0  0  0  0  0  0  0  0  0
    6.6820    2.5830   23.6800 C   0  0  0  0  0  0  0  0  0  0  0  0
    6.6780    3.4200   22.5650 C   0  0  0  0  0  0  0  0  0  0  0  0
    5.6720    4.3640   22.3970 C   0  0  0  0  0  0  0  0  0  0  0  0
    4.6570    4.4930   23.3390 C   0  0  0  0  0  0  0  0  0  0  0  0
    4.6730    3.6620   24.4510 C   0  0  0  0  0  0  0  0  0  0  0  0
    3.3930    3.7920   25.6270 Cl  0  0  0  0  0  0  0  0  0  0  0  0
    5.6740    2.7160   24.6350 C   0  0  0  0  0  0  0  0  0  0  0  0
    5.6460    2.0810   25.5170 H   0  0  0  0  0  0  0  0  0  0  0  0
    3.8540    5.2150   23.2120 H   0  0  0  0  0  0  0  0  0  0  0  0
    5.6690    5.0020   21.5170 H   0  0  0  0  0  0  0  0  0  0  0  0
    7.4580    3.3110   21.8160 H   0  0  0  0  0  0  0  0  0  0  0  0
    8.6780    1.8360   23.3690 H   0  0  0  0  0  0  0  0  0  0  0  0
    7.8960    1.2690   24.8770 H   0  0  0  0  0  0  0  0  0  0  0  0
    7.3890    0.1980   21.7900 C   0  0  0  0  0  0  0  0  0  0  0  0
    8.1510    0.9140   21.1600 O   0  0  0  0  0  0  0  0  0  0  0  0
    6.4790   -0.8010   21.0470 C   0  0  0  0  0  0  0  0  0  0  0  0
    5.8120   -0.1680   19.8490 C   0  0  0  0  0  0  0  0  0  0  0  0
    6.2430   -0.4370   18.5760 C   0  0  0  0  0  0  0  0  0  0  0  0
    5.7620    0.1370   17.4380 N   0  0  0  0  0  0  0  0  0  0  0  0
    4.7930    1.0100   17.5840 C   0  0  0  0  0  0  0  0  0  0  0  0
    4.2300    1.3790   18.8370 C   0  0  0  0  0  0  0  0  0  0  0  0
    3.1840    2.3310   18.9450 C   0  0  0  0  0  0  0  0  0  0  0  0
    2.6630    2.6600   20.1650 C   0  0  0  0  0  0  0  0  0  0  0  0
    3.1680    2.0490   21.3380 C   0  0  0  0  0  0  0  0  0  0  0  0
    4.1900    1.1350   21.2600 C   0  0  0  0  0  0  0  0  0  0  0  0
    4.7510    0.7750   20.0070 C   0  0  0  0  0  0  0  0  0  0  0  0
    4.5690    0.6750   22.1710 H   0  0  0  0  0  0  0  0  0  0  0  0
    2.7340    2.3030   22.3020 H   0  0  0  0  0  0  0  0  0  0  0  0
    1.8600    3.3890   20.2370 H   0  0  0  0  0  0  0  0  0  0  0  0
    2.8100    2.7950   18.0350 H   0  0  0  0  0  0  0  0  0  0  0  0
    4.4000    1.4790   16.6790 H   0  0  0  0  0  0  0  0  0  0  0  0
    7.0360   -1.1650   18.4070 H   0  0  0  0  0  0  0  0  0  0  0  0
    5.7570   -1.2480   21.7390 H   0  0  0  0  0  0  0  0  0  0  0  0
    7.1340   -1.6080   20.6980 H   0  0  0  0  0  0  0  0  0  0  0  0
    5.6390   -0.8380   24.5640 C   0  0  0  0  0  0  0  0  0  0  0  0
    5.2130   -1.9120   25.3460 C   0  0  0  0  0  0  0  0  0  0  0  0
    6.0740   -2.9820   25.5610 C   0  0  0  0  0  0  0  0  0  0  0  0
    7.3560   -2.9690   25.0140 C   0  0  0  0  0  0  0  0  0  0  0  0
    5.7650   -3.8480   26.1400 H   0  0  0  0  0  0  0  0  0  0  0  0
    4.2120   -1.9190   25.7690 H   0  0  0  0  0  0  0  0  0  0  0  0
    4.9790    0.0050   24.3660 H   0  0  0  0  0  0  0  0  0  0  0  0
    9.7960   -1.1320   24.3710 H   0  0  0  0  0  0  0  0  0  0  0  0
    9.2740   -1.4540   22.7280 H   0  0  0  0  0  0  0  0  0  0  0  0
   11.0630   -3.0340   23.6860 H   0  0  0  0  0  0  0  0  0  0  0  0
    9.6840   -3.8210   22.9430 H   0  0  0  0  0  0  0  0  0  0  0  0
   10.2390   -4.8800   25.1490 H   0  0  0  0  0  0  0  0  0  0  0  0
   10.0040   -3.3100   25.9430 H   0  0  0  0  0  0  0  0  0  0  0  0
    8.0390   -4.5320   26.1780 H   0  0  0  0  0  0  0  0  0  0  0  0
    7.8140   -5.7720   22.3400 H   0  0  0  0  0  0  0  0  0  0  0  0
    7.3490   -4.1070   22.7380 H   0  0  0  0  0  0  0  0  0  0  0  0
    5.3760   -5.4660   21.9040 H   0  0  0  0  0  0  0  0  0  0  0  0
    5.6570   -6.6290   23.2230 H   0  0  0  0  0  0  0  0  0  0  0  0
    5.1410   -4.9700   23.6020 H   0  0  0  0  0  0  0  0  0  0  0  0
  1  2  1  0  0  0  0
  1 63  1  0  0  0  0
  1 64  1  0  0  0  0
  1 65  1  0  0  0  0
  2  3  1  0  0  0  0
  2 61  1  0  0  0  0
  2 62  1  0  0  0  0
  3  4  2  0  0  0  0
  3  5  1  0  0  0  0
  5  6  1  0  0  0  0
  5 50  1  0  0  0  0
  5 60  1  0  0  0  0
  6  7  1  0  0  0  0
  6 58  1  0  0  0  0
  6 59  1  0  0  0  0
  7  8  1  0  0  0  0
  7 56  1  0  0  0  0
  7 57  1  0  0  0  0
  8  9  1  0  0  0  0
  8 54  1  0  0  0  0
  8 55  1  0  0  0  0
  9 10  2  0  0  0  0
  9 50  1  0  0  0  0
 10 11  1  0  0  0  0
 10 47  1  0  0  0  0
 11 12  1  0  0  0  0
 11 26  1  0  0  0  0
 12 13  1  0  0  0  0
 12 24  1  0  0  0  0
 12 25  1  0  0  0  0
 13 14  2  0  0  0  0
 13 19  1  0  0  0  0
 14 15  1  0  0  0  0
 14 23  1  0  0  0  0
 15 16  2  0  0  0  0
 15 22  1  0  0  0  0
 16 17  1  0  0  0  0
 16 21  1  0  0  0  0
 17 18  1  0  0  0  0
 17 19  2  0  0  0  0
 19 20  1  0  0  0  0
 26 27  2  0  0  0  0
 26 28  1  0  0  0  0
 28 29  1  0  0  0  0
 28 45  1  0  0  0  0
 28 46  1  0  0  0  0
 29 30  2  0  0  0  0
 29 38  1  0  0  0  0
 30 31  1  0  0  0  0
 30 44  1  0  0  0  0
 31 32  2  0  0  0  0
 32 33  1  0  0  0  0
 32 43  1  0  0  0  0
 33 34  2  0  0  0  0
 33 38  1  0  0  0  0
 34 35  1  0  0  0  0
 34 42  1  0  0  0  0
 35 36  2  0  0  0  0
 35 41  1  0  0  0  0
 36 37  1  0  0  0  0
 36 40  1  0  0  0  0
 37 38  2  0  0  0  0
 37 39  1  0  0  0  0
 47 48  2  0  0  0  0
 47 53  1  0  0  0  0
 48 49  1  0  0  0  0
 48 52  1  0  0  0  0
 49 50  2  0  0  0  0
 49 51  1  0  0  0  0
M  CHG  1   5   1
M  END
>  <MODEL>
       4

$$$$
best_conformers_6.pdb
 OpenBabel02042510453D

 65 69  0  0  0  0  0  0  0  0999 V2000
    4.8480    3.8620   24.2890 C   0  0  0  0  0  0  0  0  0  0  0  0
    5.8010    2.7270   24.6710 C   0  0  0  0  0  0  0  0  0  0  0  0
    5.6330    2.3590   26.1290 C   0  0  0  0  0  0  0  0  0  0  0  0
    5.7220    3.1280   27.0490 O   0  0  0  0  0  0  0  0  0  0  0  0
    5.3060    0.9280   26.4670 N   0  3  0  0  0  0  0  0  0  0  0  0
    3.7910    0.6820   26.5710 C   0  0  0  0  0  0  0  0  0  0  0  0
    3.2220    0.3740   25.2000 C   0  0  0  0  0  0  0  0  0  0  0  0
    3.8760   -0.8830   24.6220 C   0  0  0  0  0  0  0  0  0  0  0  0
    5.3930   -0.8830   24.7180 C   0  0  0  0  0  0  0  0  0  0  0  0
    6.1820   -1.6800   23.8640 C   0  0  0  0  0  0  0  0  0  0  0  0
    5.5460   -2.4290   22.8240 N   0  0  0  0  0  0  0  0  0  0  0  0
    4.9660   -3.7290   23.1870 C   0  0  0  0  0  0  0  0  0  0  0  0
    5.9820   -4.8470   23.1250 C   0  0  0  0  0  0  0  0  0  0  0  0
    6.1610   -5.5900   21.9620 C   0  0  0  0  0  0  0  0  0  0  0  0
    7.1600   -6.5520   21.8920 C   0  0  0  0  0  0  0  0  0  0  0  0
    7.9780   -6.8150   22.9860 C   0  0  0  0  0  0  0  0  0  0  0  0
    7.8440   -6.0100   24.1050 C   0  0  0  0  0  0  0  0  0  0  0  0
    9.0960   -6.0320   25.3100 Cl  0  0  0  0  0  0  0  0  0  0  0  0
    6.8280   -5.0720   24.2070 C   0  0  0  0  0  0  0  0  0  0  0  0
    6.7630   -4.4830   25.1180 H   0  0  0  0  0  0  0  0  0  0  0  0
    8.7810   -7.5470   22.9640 H   0  0  0  0  0  0  0  0  0  0  0  0
    7.3690   -7.0130   20.9360 H   0  0  0  0  0  0  0  0  0  0  0  0
    5.5350   -5.3980   21.0950 H   0  0  0  0  0  0  0  0  0  0  0  0
    4.5890   -3.6530   24.2100 H   0  0  0  0  0  0  0  0  0  0  0  0
    4.1410   -3.9480   22.5040 H   0  0  0  0  0  0  0  0  0  0  0  0
    5.6160   -2.1230   21.4790 C   0  0  0  0  0  0  0  0  0  0  0  0
    5.0690   -2.8380   20.6470 O   0  0  0  0  0  0  0  0  0  0  0  0
    6.4190   -0.8800   21.0300 C   0  0  0  0  0  0  0  0  0  0  0  0
    5.8050   -0.1770   19.8450 C   0  0  0  0  0  0  0  0  0  0  0  0
    6.2320   -0.4450   18.5720 C   0  0  0  0  0  0  0  0  0  0  0  0
    5.7550    0.1360   17.4360 N   0  0  0  0  0  0  0  0  0  0  0  0
    4.7910    1.0130   17.5830 C   0  0  0  0  0  0  0  0  0  0  0  0
    4.2300    1.3800   18.8360 C   0  0  0  0  0  0  0  0  0  0  0  0
    3.1780    2.3270   18.9430 C   0  0  0  0  0  0  0  0  0  0  0  0
    2.6490    2.6490   20.1620 C   0  0  0  0  0  0  0  0  0  0  0  0
    3.1530    2.0340   21.3330 C   0  0  0  0  0  0  0  0  0  0  0  0
    4.1730    1.1200   21.2580 C   0  0  0  0  0  0  0  0  0  0  0  0
    4.7470    0.7670   20.0060 C   0  0  0  0  0  0  0  0  0  0  0  0
    4.5480    0.6570   22.1710 H   0  0  0  0  0  0  0  0  0  0  0  0
    2.7250    2.3020   22.2980 H   0  0  0  0  0  0  0  0  0  0  0  0
    1.8450    3.3780   20.2380 H   0  0  0  0  0  0  0  0  0  0  0  0
    2.8050    2.7920   18.0330 H   0  0  0  0  0  0  0  0  0  0  0  0
    4.4000    1.4830   16.6780 H   0  0  0  0  0  0  0  0  0  0  0  0
    7.0220   -1.1770   18.4010 H   0  0  0  0  0  0  0  0  0  0  0  0
    7.4170   -1.2430   20.7450 H   0  0  0  0  0  0  0  0  0  0  0  0
    6.5840   -0.1890   21.8640 H   0  0  0  0  0  0  0  0  0  0  0  0
    7.5640   -1.7510   24.0220 C   0  0  0  0  0  0  0  0  0  0  0  0
    8.1900   -0.9840   25.0020 C   0  0  0  0  0  0  0  0  0  0  0  0
    7.4310   -0.1440   25.8080 C   0  0  0  0  0  0  0  0  0  0  0  0
    6.0470   -0.0890   25.6550 C   0  0  0  0  0  0  0  0  0  0  0  0
    7.8980    0.4830   26.5630 H   0  0  0  0  0  0  0  0  0  0  0  0
    9.2690   -1.0270   25.1260 H   0  0  0  0  0  0  0  0  0  0  0  0
    8.1470   -2.4120   23.3790 H   0  0  0  0  0  0  0  0  0  0  0  0
    3.5740   -1.0270   23.5810 H   0  0  0  0  0  0  0  0  0  0  0  0
    3.4950   -1.7500   25.1820 H   0  0  0  0  0  0  0  0  0  0  0  0
    3.3790    1.2290   24.5290 H   0  0  0  0  0  0  0  0  0  0  0  0
    2.1380    0.2370   25.2790 H   0  0  0  0  0  0  0  0  0  0  0  0
    3.3260    1.5660   27.0160 H   0  0  0  0  0  0  0  0  0  0  0  0
    3.6350   -0.1680   27.2410 H   0  0  0  0  0  0  0  0  0  0  0  0
    5.6760    0.8660   27.4370 H   0  0  0  0  0  0  0  0  0  0  0  0
    5.6450    1.8420   24.0470 H   0  0  0  0  0  0  0  0  0  0  0  0
    6.8480    3.0190   24.5280 H   0  0  0  0  0  0  0  0  0  0  0  0
    3.8050    3.5780   24.4840 H   0  0  0  0  0  0  0  0  0  0  0  0
    4.9400    4.1150   23.2250 H   0  0  0  0  0  0  0  0  0  0  0  0
    5.0670    4.7520   24.8850 H   0  0  0  0  0  0  0  0  0  0  0  0
  1  2  1  0  0  0  0
  1 63  1  0  0  0  0
  1 64  1  0  0  0  0
  1 65  1  0  0  0  0
  2  3  1  0  0  0  0
  2 61  1  0  0  0  0
  2 62  1  0  0  0  0
  3  4  2  0  0  0  0
  3  5  1  0  0  0  0
  5  6  1  0  0  0  0
  5 50  1  0  0  0  0
  5 60  1  0  0  0  0
  6  7  1  0  0  0  0
  6 58  1  0  0  0  0
  6 59  1  0  0  0  0
  7  8  1  0  0  0  0
  7 56  1  0  0  0  0
  7 57  1  0  0  0  0
  8  9  1  0  0  0  0
  8 54  1  0  0  0  0
  8 55  1  0  0  0  0
  9 10  2  0  0  0  0
  9 50  1  0  0  0  0
 10 11  1  0  0  0  0
 10 47  1  0  0  0  0
 11 12  1  0  0  0  0
 11 26  1  0  0  0  0
 12 13  1  0  0  0  0
 12 24  1  0  0  0  0
 12 25  1  0  0  0  0
 13 14  2  0  0  0  0
 13 19  1  0  0  0  0
 14 15  1  0  0  0  0
 14 23  1  0  0  0  0
 15 16  2  0  0  0  0
 15 22  1  0  0  0  0
 16 17  1  0  0  0  0
 16 21  1  0  0  0  0
 17 18  1  0  0  0  0
 17 19  2  0  0  0  0
 19 20  1  0  0  0  0
 26 27  2  0  0  0  0
 26 28  1  0  0  0  0
 28 29  1  0  0  0  0
 28 45  1  0  0  0  0
 28 46  1  0  0  0  0
 29 30  2  0  0  0  0
 29 38  1  0  0  0  0
 30 31  1  0  0  0  0
 30 44  1  0  0  0  0
 31 32  2  0  0  0  0
 32 33  1  0  0  0  0
 32 43  1  0  0  0  0
 33 34  2  0  0  0  0
 33 38  1  0  0  0  0
 34 35  1  0  0  0  0
 34 42  1  0  0  0  0
 35 36  2  0  0  0  0
 35 41  1  0  0  0  0
 36 37  1  0  0  0  0
 36 40  1  0  0  0  0
 37 38  2  0  0  0  0
 37 39  1  0  0  0  0
 47 48  2  0  0  0  0
 47 53  1  0  0  0  0
 48 49  1  0  0  0  0
 48 52  1  0  0  0  0
 49 50  2  0  0  0  0
 49 51  1  0  0  0  0
M  CHG  1   5   1
M  END
>  <MODEL>
       5

$$$$
best_conformers_6.pdb
 OpenBabel02042510453D

 65 69  0  0  0  0  0  0  0  0999 V2000
    5.1370   -4.8020   23.0240 C   0  0  0  0  0  0  0  0  0  0  0  0
    5.7960   -5.8810   23.8900 C   0  0  0  0  0  0  0  0  0  0  0  0
    6.2300   -5.2540   25.1870 C   0  0  0  0  0  0  0  0  0  0  0  0
    5.7050   -5.4520   26.2570 O   0  0  0  0  0  0  0  0  0  0  0  0
    7.3100   -4.2370   25.1400 N   0  3  0  0  0  0  0  0  0  0  0  0
    8.5430   -4.5700   24.3070 C   0  0  0  0  0  0  0  0  0  0  0  0
    9.4180   -3.3430   24.2260 C   0  0  0  0  0  0  0  0  0  0  0  0
    8.6830   -2.2100   23.5170 C   0  0  0  0  0  0  0  0  0  0  0  0
    7.3560   -1.8700   24.1720 C   0  0  0  0  0  0  0  0  0  0  0  0
    6.6770   -0.6410   23.9800 C   0  0  0  0  0  0  0  0  0  0  0  0
    7.1690    0.3550   23.0780 N   0  0  0  0  0  0  0  0  0  0  0  0
    7.8000    1.5210   23.6900 C   0  0  0  0  0  0  0  0  0  0  0  0
    9.1650    1.1500   24.2140 C   0  0  0  0  0  0  0  0  0  0  0  0
   10.3200    1.5310   23.5520 C   0  0  0  0  0  0  0  0  0  0  0  0
   11.5650    1.1380   24.0250 C   0  0  0  0  0  0  0  0  0  0  0  0
   11.6780    0.2630   25.0970 C   0  0  0  0  0  0  0  0  0  0  0  0
   10.5070   -0.1750   25.7150 C   0  0  0  0  0  0  0  0  0  0  0  0
   10.6510   -1.3790   26.9570 Cl  0  0  0  0  0  0  0  0  0  0  0  0
    9.2590    0.3240   25.3420 C   0  0  0  0  0  0  0  0  0  0  0  0
    8.3580    0.0780   25.8980 H   0  0  0  0  0  0  0  0  0  0  0  0
   12.6500   -0.0730   25.4480 H   0  0  0  0  0  0  0  0  0  0  0  0
   12.4660    1.5280   23.5670 H   0  0  0  0  0  0  0  0  0  0  0  0
   10.2640    2.1480   22.6580 H   0  0  0  0  0  0  0  0  0  0  0  0
    7.8330    2.3120   22.9340 H   0  0  0  0  0  0  0  0  0  0  0  0
    7.1880    1.8600   24.5320 H   0  0  0  0  0  0  0  0  0  0  0  0
    7.3740    0.1700   21.7220 C   0  0  0  0  0  0  0  0  0  0  0  0
    8.2020    0.8140   21.0990 O   0  0  0  0  0  0  0  0  0  0  0  0
    6.4650   -0.8330   21.0150 C   0  0  0  0  0  0  0  0  0  0  0  0
    5.7960   -0.1910   19.8300 C   0  0  0  0  0  0  0  0  0  0  0  0
    6.2510   -0.4360   18.5650 C   0  0  0  0  0  0  0  0  0  0  0  0
    5.7770    0.1400   17.4270 N   0  0  0  0  0  0  0  0  0  0  0  0
    4.7990    1.0010   17.5760 C   0  0  0  0  0  0  0  0  0  0  0  0
    4.2290    1.3620   18.8280 C   0  0  0  0  0  0  0  0  0  0  0  0
    3.1860    2.3180   18.9330 C   0  0  0  0  0  0  0  0  0  0  0  0
    2.6650    2.6500   20.1530 C   0  0  0  0  0  0  0  0  0  0  0  0
    3.1670    2.0420   21.3270 C   0  0  0  0  0  0  0  0  0  0  0  0
    4.1780    1.1160   21.2560 C   0  0  0  0  0  0  0  0  0  0  0  0
    4.7380    0.7510   20.0000 C   0  0  0  0  0  0  0  0  0  0  0  0
    4.5560    0.6710   22.1750 H   0  0  0  0  0  0  0  0  0  0  0  0
    2.7490    2.3190   22.2920 H   0  0  0  0  0  0  0  0  0  0  0  0
    1.8690    3.3860   20.2300 H   0  0  0  0  0  0  0  0  0  0  0  0
    2.8170    2.7850   18.0230 H   0  0  0  0  0  0  0  0  0  0  0  0
    4.4080    1.4690   16.6700 H   0  0  0  0  0  0  0  0  0  0  0  0
    7.0610   -1.1500   18.4180 H   0  0  0  0  0  0  0  0  0  0  0  0
    5.7330   -1.2300   21.7230 H   0  0  0  0  0  0  0  0  0  0  0  0
    7.1030   -1.6580   20.6690 H   0  0  0  0  0  0  0  0  0  0  0  0
    5.5330   -0.3340   24.7130 C   0  0  0  0  0  0  0  0  0  0  0  0
    4.9820   -1.2710   25.5810 C   0  0  0  0  0  0  0  0  0  0  0  0
    5.5950   -2.5050   25.7370 C   0  0  0  0  0  0  0  0  0  0  0  0
    6.7530   -2.7940   25.0140 C   0  0  0  0  0  0  0  0  0  0  0  0
    5.1730   -3.2460   26.4030 H   0  0  0  0  0  0  0  0  0  0  0  0
    4.0670   -1.0560   26.1240 H   0  0  0  0  0  0  0  0  0  0  0  0
    5.0640    0.6390   24.5920 H   0  0  0  0  0  0  0  0  0  0  0  0
    9.3240   -1.3270   23.4460 H   0  0  0  0  0  0  0  0  0  0  0  0
    8.4840   -2.5110   22.4800 H   0  0  0  0  0  0  0  0  0  0  0  0
    9.7000   -3.0560   25.2430 H   0  0  0  0  0  0  0  0  0  0  0  0
   10.3420   -3.5840   23.6860 H   0  0  0  0  0  0  0  0  0  0  0  0
    8.2360   -4.8750   23.3050 H   0  0  0  0  0  0  0  0  0  0  0  0
    9.0830   -5.4000   24.7750 H   0  0  0  0  0  0  0  0  0  0  0  0
    7.6330   -4.2790   26.1400 H   0  0  0  0  0  0  0  0  0  0  0  0
    6.6670   -6.3220   23.4000 H   0  0  0  0  0  0  0  0  0  0  0  0
    5.1000   -6.6840   24.1310 H   0  0  0  0  0  0  0  0  0  0  0  0
    5.8960   -4.0890   22.6890 H   0  0  0  0  0  0  0  0  0  0  0  0
    4.4090   -4.2410   23.6180 H   0  0  0  0  0  0  0  0  0  0  0  0
    4.6310   -5.2120   22.1470 H   0  0  0  0  0  0  0  0  0  0  0  0
  1  2  1  0  0  0  0
  1 63  1  0  0  0  0
  1 64  1  0  0  0  0
  1 65  1  0  0  0  0
  2  3  1  0  0  0  0
  2 61  1  0  0  0  0
  2 62  1  0  0  0  0
  3  4  2  0  0  0  0
  3  5  1  0  0  0  0
  5  6  1  0  0  0  0
  5 50  1  0  0  0  0
  5 60  1  0  0  0  0
  6  7  1  0  0  0  0
  6 58  1  0  0  0  0
  6 59  1  0  0  0  0
  7  8  1  0  0  0  0
  7 56  1  0  0  0  0
  7 57  1  0  0  0  0
  8  9  1  0  0  0  0
  8 54  1  0  0  0  0
  8 55  1  0  0  0  0
  9 10  2  0  0  0  0
  9 50  1  0  0  0  0
 10 11  1  0  0  0  0
 10 47  1  0  0  0  0
 11 12  1  0  0  0  0
 11 26  1  0  0  0  0
 12 13  1  0  0  0  0
 12 24  1  0  0  0  0
 12 25  1  0  0  0  0
 13 14  2  0  0  0  0
 13 19  1  0  0  0  0
 14 15  1  0  0  0  0
 14 23  1  0  0  0  0
 15 16  2  0  0  0  0
 15 22  1  0  0  0  0
 16 17  1  0  0  0  0
 16 21  1  0  0  0  0
 17 18  1  0  0  0  0
 17 19  2  0  0  0  0
 19 20  1  0  0  0  0
 26 27  2  0  0  0  0
 26 28  1  0  0  0  0
 28 29  1  0  0  0  0
 28 45  1  0  0  0  0
 28 46  1  0  0  0  0
 29 30  2  0  0  0  0
 29 38  1  0  0  0  0
 30 31  1  0  0  0  0
 30 44  1  0  0  0  0
 31 32  2  0  0  0  0
 32 33  1  0  0  0  0
 32 43  1  0  0  0  0
 33 34  2  0  0  0  0
 33 38  1  0  0  0  0
 34 35  1  0  0  0  0
 34 42  1  0  0  0  0
 35 36  2  0  0  0  0
 35 41  1  0  0  0  0
 36 37  1  0  0  0  0
 36 40  1  0  0  0  0
 37 38  2  0  0  0  0
 37 39  1  0  0  0  0
 47 48  2  0  0  0  0
 47 53  1  0  0  0  0
 48 49  1  0  0  0  0
 48 52  1  0  0  0  0
 49 50  2  0  0  0  0
 49 51  1  0  0  0  0
M  CHG  1   5   1
M  END
>  <MODEL>
       6

$$$$
