best_conformers_16.pdb
 OpenBabel02042510453D

 47 50  0  0  1  0  0  0  0  0999 V2000
    7.4860   -5.1780   24.0510 C   0  0  0  0  0  0  0  0  0  0  0  0
    6.2320   -4.3620   24.3620 C   0  0  1  0  0  0  0  0  0  0  0  0
    6.5700   -3.0140   25.0110 C   0  0  0  0  0  0  0  0  0  0  0  0
    6.5180   -1.9510   23.8960 C   0  0  2  0  0  0  0  0  0  0  0  0
    5.7860   -0.7000   24.3540 C   0  0  0  0  0  0  0  0  0  0  0  0
    6.4890    0.4760   24.6090 C   0  0  0  0  0  0  0  0  0  0  0  0
    5.8270    1.6200   25.0460 C   0  0  0  0  0  0  0  0  0  0  0  0
    4.4490    1.5950   25.2470 C   0  0  0  0  0  0  0  0  0  0  0  0
    3.7440    0.4150   25.0240 C   0  0  0  0  0  0  0  0  0  0  0  0
    4.4110   -0.7230   24.5890 C   0  0  0  0  0  0  0  0  0  0  0  0
    3.8500   -1.6420   24.4430 H   0  0  0  0  0  0  0  0  0  0  0  0
    2.6710    0.3780   25.1920 H   0  0  0  0  0  0  0  0  0  0  0  0
    3.9270    2.4880   25.5750 H   0  0  0  0  0  0  0  0  0  0  0  0
    6.3870    2.5350   25.2120 H   0  0  0  0  0  0  0  0  0  0  0  0
    7.5670    0.4980   24.4580 H   0  0  0  0  0  0  0  0  0  0  0  0
    5.8820   -2.6310   22.7740 N   0  0  0  0  0  0  0  0  0  0  0  0
    5.6150   -2.1080   21.5310 C   0  0  0  0  0  0  0  0  0  0  0  0
    4.8120   -2.6510   20.7900 O   0  0  0  0  0  0  0  0  0  0  0  0
    6.4260   -0.8770   21.0480 C   0  0  0  0  0  0  0  0  0  0  0  0
    5.8050   -0.1810   19.8550 C   0  0  0  0  0  0  0  0  0  0  0  0
    6.2300   -0.4470   18.5770 C   0  0  0  0  0  0  0  0  0  0  0  0
    5.7550    0.1340   17.4390 N   0  0  0  0  0  0  0  0  0  0  0  0
    4.7880    1.0110   17.5850 C   0  0  0  0  0  0  0  0  0  0  0  0
    4.2280    1.3770   18.8390 C   0  0  0  0  0  0  0  0  0  0  0  0
    3.1750    2.3230   18.9420 C   0  0  0  0  0  0  0  0  0  0  0  0
    2.6450    2.6420   20.1610 C   0  0  0  0  0  0  0  0  0  0  0  0
    3.1510    2.0230   21.3290 C   0  0  0  0  0  0  0  0  0  0  0  0
    4.1720    1.1070   21.2680 C   0  0  0  0  0  0  0  0  0  0  0  0
    4.7440    0.7640   20.0120 C   0  0  0  0  0  0  0  0  0  0  0  0
    4.5420    0.6460   22.1870 H   0  0  0  0  0  0  0  0  0  0  0  0
    2.7240    2.2880   22.2900 H   0  0  0  0  0  0  0  0  0  0  0  0
    1.8400    3.3700   20.2440 H   0  0  0  0  0  0  0  0  0  0  0  0
    2.8010    2.7900   18.0320 H   0  0  0  0  0  0  0  0  0  0  0  0
    4.4000    1.4850   16.6790 H   0  0  0  0  0  0  0  0  0  0  0  0
    7.0200   -1.1800   18.4030 H   0  0  0  0  0  0  0  0  0  0  0  0
    7.4090   -1.2600   20.7370 H   0  0  0  0  0  0  0  0  0  0  0  0
    6.6380   -0.1690   21.8600 H   0  0  0  0  0  0  0  0  0  0  0  0
    5.4480   -3.9860   23.0980 C   0  0  0  0  0  0  0  0  0  0  0  0
    5.6780   -4.6430   22.2570 H   0  0  0  0  0  0  0  0  0  0  0  0
    4.3610   -4.0500   23.2460 H   0  0  0  0  0  0  0  0  0  0  0  0
    7.5320   -1.6650   23.6000 H   0  0  0  0  0  0  0  0  0  0  0  0
    7.5490   -3.0310   25.4930 H   0  0  0  0  0  0  0  0  0  0  0  0
    5.8580   -2.7770   25.8060 H   0  0  0  0  0  0  0  0  0  0  0  0
    5.6080   -4.9580   25.0310 H   0  0  0  0  0  0  0  0  0  0  0  0
    8.0460   -5.4070   24.9650 H   0  0  0  0  0  0  0  0  0  0  0  0
    8.1570   -4.6270   23.3860 H   0  0  0  0  0  0  0  0  0  0  0  0
    7.2340   -6.1280   23.5680 H   0  0  0  0  0  0  0  0  0  0  0  0
  1  2  1  0  0  0  0
  1 45  1  0  0  0  0
  1 46  1  0  0  0  0
  1 47  1  0  0  0  0
  2  3  1  0  0  0  0
  2 38  1  0  0  0  0
  2 44  1  1  0  0  0
  3  4  1  0  0  0  0
  3 42  1  0  0  0  0
  3 43  1  0  0  0  0
  4  5  1  0  0  0  0
  4 16  1  0  0  0  0
  4 41  1  6  0  0  0
  5  6  2  0  0  0  0
  5 10  1  0  0  0  0
  6  7  1  0  0  0  0
  6 15  1  0  0  0  0
  7  8  2  0  0  0  0
  7 14  1  0  0  0  0
  8  9  1  0  0  0  0
  8 13  1  0  0  0  0
  9 10  2  0  0  0  0
  9 12  1  0  0  0  0
 10 11  1  0  0  0  0
 16 17  1  0  0  0  0
 16 38  1  0  0  0  0
 17 18  2  0  0  0  0
 17 19  1  0  0  0  0
 19 20  1  0  0  0  0
 19 36  1  0  0  0  0
 19 37  1  0  0  0  0
 20 21  2  0  0  0  0
 20 29  1  0  0  0  0
 21 22  1  0  0  0  0
 21 35  1  0  0  0  0
 22 23  2  0  0  0  0
 23 24  1  0  0  0  0
 23 34  1  0  0  0  0
 24 25  2  0  0  0  0
 24 29  1  0  0  0  0
 25 26  1  0  0  0  0
 25 33  1  0  0  0  0
 26 27  2  0  0  0  0
 26 32  1  0  0  0  0
 27 28  1  0  0  0  0
 27 31  1  0  0  0  0
 28 29  2  0  0  0  0
 28 30  1  0  0  0  0
 38 39  1  0  0  0  0
 38 40  1  0  0  0  0
M  END
>  <MODEL>
       1

$$$$
best_conformers_16.pdb
 OpenBabel02042510453D

 47 50  0  0  1  0  0  0  0  0999 V2000
    5.8020   -5.3660   25.1330 C   0  0  0  0  0  0  0  0  0  0  0  0
    5.4420   -3.9430   24.7320 C   0  0  1  0  0  0  0  0  0  0  0  0
    6.5630   -2.9390   25.0100 C   0  0  0  0  0  0  0  0  0  0  0  0
    6.4690   -1.8660   23.9120 C   0  0  2  0  0  0  0  0  0  0  0  0
    5.7910   -0.5980   24.3960 C   0  0  0  0  0  0  0  0  0  0  0  0
    4.4220   -0.5680   24.6580 C   0  0  0  0  0  0  0  0  0  0  0  0
    3.8150    0.5920   25.1180 C   0  0  0  0  0  0  0  0  0  0  0  0
    4.5720    1.7400   25.3340 C   0  0  0  0  0  0  0  0  0  0  0  0
    5.9450    1.7100   25.1060 C   0  0  0  0  0  0  0  0  0  0  0  0
    6.5480    0.5440   24.6490 C   0  0  0  0  0  0  0  0  0  0  0  0
    7.6220    0.5220   24.4730 H   0  0  0  0  0  0  0  0  0  0  0  0
    6.5460    2.5990   25.2660 H   0  0  0  0  0  0  0  0  0  0  0  0
    4.0940    2.6520   25.6750 H   0  0  0  0  0  0  0  0  0  0  0  0
    2.7440    0.6020   25.2960 H   0  0  0  0  0  0  0  0  0  0  0  0
    3.8150   -1.4550   24.5020 H   0  0  0  0  0  0  0  0  0  0  0  0
    5.7450   -2.5240   22.8330 N   0  0  0  0  0  0  0  0  0  0  0  0
    5.6000   -2.0890   21.5440 C   0  0  0  0  0  0  0  0  0  0  0  0
    4.8580   -2.6830   20.7720 O   0  0  0  0  0  0  0  0  0  0  0  0
    6.4260   -0.8750   21.0500 C   0  0  0  0  0  0  0  0  0  0  0  0
    5.8060   -0.1800   19.8530 C   0  0  0  0  0  0  0  0  0  0  0  0
    6.2310   -0.4460   18.5750 C   0  0  0  0  0  0  0  0  0  0  0  0
    5.7530    0.1350   17.4360 N   0  0  0  0  0  0  0  0  0  0  0  0
    4.7880    1.0110   17.5830 C   0  0  0  0  0  0  0  0  0  0  0  0
    4.2270    1.3790   18.8380 C   0  0  0  0  0  0  0  0  0  0  0  0
    3.1750    2.3250   18.9430 C   0  0  0  0  0  0  0  0  0  0  0  0
    2.6450    2.6440   20.1610 C   0  0  0  0  0  0  0  0  0  0  0  0
    3.1520    2.0240   21.3290 C   0  0  0  0  0  0  0  0  0  0  0  0
    4.1720    1.1090   21.2650 C   0  0  0  0  0  0  0  0  0  0  0  0
    4.7450    0.7670   20.0110 C   0  0  0  0  0  0  0  0  0  0  0  0
    4.5440    0.6480   22.1830 H   0  0  0  0  0  0  0  0  0  0  0  0
    2.7270    2.2890   22.2910 H   0  0  0  0  0  0  0  0  0  0  0  0
    1.8390    3.3710   20.2450 H   0  0  0  0  0  0  0  0  0  0  0  0
    2.7990    2.7910   18.0320 H   0  0  0  0  0  0  0  0  0  0  0  0
    4.3990    1.4880   16.6780 H   0  0  0  0  0  0  0  0  0  0  0  0
    7.0190   -1.1800   18.4010 H   0  0  0  0  0  0  0  0  0  0  0  0
    6.6450   -0.1620   21.8550 H   0  0  0  0  0  0  0  0  0  0  0  0
    7.4030   -1.2690   20.7360 H   0  0  0  0  0  0  0  0  0  0  0  0
    5.1400   -3.7880   23.2420 C   0  0  0  0  0  0  0  0  0  0  0  0
    5.5640   -4.6060   22.6570 H   0  0  0  0  0  0  0  0  0  0  0  0
    4.0690   -3.8210   23.0350 H   0  0  0  0  0  0  0  0  0  0  0  0
    7.4740   -1.6120   23.5660 H   0  0  0  0  0  0  0  0  0  0  0  0
    7.5340   -3.4410   24.9760 H   0  0  0  0  0  0  0  0  0  0  0  0
    6.4880   -2.5090   26.0100 H   0  0  0  0  0  0  0  0  0  0  0  0
    4.5620   -3.6530   25.3140 H   0  0  0  0  0  0  0  0  0  0  0  0
    4.9970   -6.0780   24.9270 H   0  0  0  0  0  0  0  0  0  0  0  0
    6.0290   -5.4310   26.1990 H   0  0  0  0  0  0  0  0  0  0  0  0
    6.6890   -5.7070   24.5930 H   0  0  0  0  0  0  0  0  0  0  0  0
  1  2  1  0  0  0  0
  1 45  1  0  0  0  0
  1 46  1  0  0  0  0
  1 47  1  0  0  0  0
  2  3  1  0  0  0  0
  2 38  1  0  0  0  0
  2 44  1  1  0  0  0
  3  4  1  0  0  0  0
  3 42  1  0  0  0  0
  3 43  1  0  0  0  0
  4  5  1  0  0  0  0
  4 16  1  0  0  0  0
  4 41  1  6  0  0  0
  5  6  2  0  0  0  0
  5 10  1  0  0  0  0
  6  7  1  0  0  0  0
  6 15  1  0  0  0  0
  7  8  2  0  0  0  0
  7 14  1  0  0  0  0
  8  9  1  0  0  0  0
  8 13  1  0  0  0  0
  9 10  2  0  0  0  0
  9 12  1  0  0  0  0
 10 11  1  0  0  0  0
 16 17  1  0  0  0  0
 16 38  1  0  0  0  0
 17 18  2  0  0  0  0
 17 19  1  0  0  0  0
 19 20  1  0  0  0  0
 19 36  1  0  0  0  0
 19 37  1  0  0  0  0
 20 21  2  0  0  0  0
 20 29  1  0  0  0  0
 21 22  1  0  0  0  0
 21 35  1  0  0  0  0
 22 23  2  0  0  0  0
 23 24  1  0  0  0  0
 23 34  1  0  0  0  0
 24 25  2  0  0  0  0
 24 29  1  0  0  0  0
 25 26  1  0  0  0  0
 25 33  1  0  0  0  0
 26 27  2  0  0  0  0
 26 32  1  0  0  0  0
 27 28  1  0  0  0  0
 27 31  1  0  0  0  0
 28 29  2  0  0  0  0
 28 30  1  0  0  0  0
 38 39  1  0  0  0  0
 38 40  1  0  0  0  0
M  END
>  <MODEL>
       2

$$$$
best_conformers_16.pdb
 OpenBabel02042510453D

 47 50  0  0  1  0  0  0  0  0999 V2000
    5.9450    2.1240   25.5860 C   0  0  0  0  0  0  0  0  0  0  0  0
    7.1860    1.2580   25.3740 C   0  0  1  0  0  0  0  0  0  0  0  0
    6.8780   -0.2360   25.5210 C   0  0  0  0  0  0  0  0  0  0  0  0
    6.6250   -0.7720   24.0980 C   0  0  2  0  0  0  0  0  0  0  0  0
    7.2170   -2.1540   23.9060 C   0  0  0  0  0  0  0  0  0  0  0  0
    6.3880   -3.2730   23.8670 C   0  0  0  0  0  0  0  0  0  0  0  0
    6.9260   -4.5470   23.7130 C   0  0  0  0  0  0  0  0  0  0  0  0
    8.3020   -4.7140   23.6070 C   0  0  0  0  0  0  0  0  0  0  0  0
    9.1400   -3.6040   23.6700 C   0  0  0  0  0  0  0  0  0  0  0  0
    8.5990   -2.3340   23.8310 C   0  0  0  0  0  0  0  0  0  0  0  0
    9.2620   -1.4750   23.8940 H   0  0  0  0  0  0  0  0  0  0  0  0
   10.2170   -3.7240   23.5950 H   0  0  0  0  0  0  0  0  0  0  0  0
    8.7200   -5.7080   23.4870 H   0  0  0  0  0  0  0  0  0  0  0  0
    6.2660   -5.4080   23.6660 H   0  0  0  0  0  0  0  0  0  0  0  0
    5.3100   -3.1480   23.9620 H   0  0  0  0  0  0  0  0  0  0  0  0
    7.1960    0.2440   23.2230 N   0  0  0  0  0  0  0  0  0  0  0  0
    7.3370    0.1690   21.8560 C   0  0  0  0  0  0  0  0  0  0  0  0
    8.1260    0.8870   21.2670 O   0  0  0  0  0  0  0  0  0  0  0  0
    6.4570   -0.8210   21.0580 C   0  0  0  0  0  0  0  0  0  0  0  0
    5.8080   -0.1720   19.8520 C   0  0  0  0  0  0  0  0  0  0  0  0
    6.2410   -0.4370   18.5770 C   0  0  0  0  0  0  0  0  0  0  0  0
    5.7600    0.1380   17.4380 N   0  0  0  0  0  0  0  0  0  0  0  0
    4.7880    1.0090   17.5830 C   0  0  0  0  0  0  0  0  0  0  0  0
    4.2290    1.3770   18.8360 C   0  0  0  0  0  0  0  0  0  0  0  0
    3.1800    2.3290   18.9420 C   0  0  0  0  0  0  0  0  0  0  0  0
    2.6590    2.6600   20.1630 C   0  0  0  0  0  0  0  0  0  0  0  0
    3.1670    2.0520   21.3340 C   0  0  0  0  0  0  0  0  0  0  0  0
    4.1850    1.1330   21.2610 C   0  0  0  0  0  0  0  0  0  0  0  0
    4.7480    0.7710   20.0070 C   0  0  0  0  0  0  0  0  0  0  0  0
    4.5680    0.6790   22.1730 H   0  0  0  0  0  0  0  0  0  0  0  0
    2.7490    2.3230   22.2990 H   0  0  0  0  0  0  0  0  0  0  0  0
    1.8580    3.3920   20.2440 H   0  0  0  0  0  0  0  0  0  0  0  0
    2.8050    2.7920   18.0320 H   0  0  0  0  0  0  0  0  0  0  0  0
    4.3990    1.4840   16.6790 H   0  0  0  0  0  0  0  0  0  0  0  0
    7.0310   -1.1700   18.4060 H   0  0  0  0  0  0  0  0  0  0  0  0
    7.1230   -1.6180   20.7070 H   0  0  0  0  0  0  0  0  0  0  0  0
    5.7110   -1.3080   21.6940 H   0  0  0  0  0  0  0  0  0  0  0  0
    7.7540    1.3800   23.9520 C   0  0  0  0  0  0  0  0  0  0  0  0
    7.4460    2.3090   23.4670 H   0  0  0  0  0  0  0  0  0  0  0  0
    8.8520    1.3750   23.9430 H   0  0  0  0  0  0  0  0  0  0  0  0
    5.5450   -0.8230   23.9080 H   0  0  0  0  0  0  0  0  0  0  0  0
    7.7140   -0.7610   25.9890 H   0  0  0  0  0  0  0  0  0  0  0  0
    6.0180   -0.4150   26.1690 H   0  0  0  0  0  0  0  0  0  0  0  0
    7.9320    1.5680   26.1110 H   0  0  0  0  0  0  0  0  0  0  0  0
    6.1710    3.1870   25.4570 H   0  0  0  0  0  0  0  0  0  0  0  0
    5.1540    1.8620   24.8770 H   0  0  0  0  0  0  0  0  0  0  0  0
    5.5320    1.9910   26.5930 H   0  0  0  0  0  0  0  0  0  0  0  0
  1  2  1  0  0  0  0
  1 45  1  0  0  0  0
  1 46  1  0  0  0  0
  1 47  1  0  0  0  0
  2  3  1  0  0  0  0
  2 38  1  0  0  0  0
  2 44  1  1  0  0  0
  3  4  1  0  0  0  0
  3 42  1  0  0  0  0
  3 43  1  0  0  0  0
  4  5  1  0  0  0  0
  4 16  1  0  0  0  0
  4 41  1  6  0  0  0
  5  6  2  0  0  0  0
  5 10  1  0  0  0  0
  6  7  1  0  0  0  0
  6 15  1  0  0  0  0
  7  8  2  0  0  0  0
  7 14  1  0  0  0  0
  8  9  1  0  0  0  0
  8 13  1  0  0  0  0
  9 10  2  0  0  0  0
  9 12  1  0  0  0  0
 10 11  1  0  0  0  0
 16 17  1  0  0  0  0
 16 38  1  0  0  0  0
 17 18  2  0  0  0  0
 17 19  1  0  0  0  0
 19 20  1  0  0  0  0
 19 36  1  0  0  0  0
 19 37  1  0  0  0  0
 20 21  2  0  0  0  0
 20 29  1  0  0  0  0
 21 22  1  0  0  0  0
 21 35  1  0  0  0  0
 22 23  2  0  0  0  0
 23 24  1  0  0  0  0
 23 34  1  0  0  0  0
 24 25  2  0  0  0  0
 24 29  1  0  0  0  0
 25 26  1  0  0  0  0
 25 33  1  0  0  0  0
 26 27  2  0  0  0  0
 26 32  1  0  0  0  0
 27 28  1  0  0  0  0
 27 31  1  0  0  0  0
 28 29  2  0  0  0  0
 28 30  1  0  0  0  0
 38 39  1  0  0  0  0
 38 40  1  0  0  0  0
M  END
>  <MODEL>
       3

$$$$
best_conformers_16.pdb
 OpenBabel02042510453D

 47 50  0  0  1  0  0  0  0  0999 V2000
    5.9440    2.1240   25.5860 C   0  0  0  0  0  0  0  0  0  0  0  0
    7.1850    1.2580   25.3750 C   0  0  1  0  0  0  0  0  0  0  0  0
    6.8770   -0.2360   25.5210 C   0  0  0  0  0  0  0  0  0  0  0  0
    6.6250   -0.7720   24.0990 C   0  0  2  0  0  0  0  0  0  0  0  0
    7.2170   -2.1540   23.9060 C   0  0  0  0  0  0  0  0  0  0  0  0
    8.5990   -2.3340   23.8310 C   0  0  0  0  0  0  0  0  0  0  0  0
    9.1390   -3.6040   23.6710 C   0  0  0  0  0  0  0  0  0  0  0  0
    8.3020   -4.7140   23.6070 C   0  0  0  0  0  0  0  0  0  0  0  0
    6.9260   -4.5470   23.7130 C   0  0  0  0  0  0  0  0  0  0  0  0
    6.3880   -3.2730   23.8670 C   0  0  0  0  0  0  0  0  0  0  0  0
    5.3100   -3.1480   23.9620 H   0  0  0  0  0  0  0  0  0  0  0  0
    6.2660   -5.4080   23.6660 H   0  0  0  0  0  0  0  0  0  0  0  0
    8.7200   -5.7080   23.4870 H   0  0  0  0  0  0  0  0  0  0  0  0
   10.2170   -3.7240   23.5950 H   0  0  0  0  0  0  0  0  0  0  0  0
    9.2620   -1.4750   23.8950 H   0  0  0  0  0  0  0  0  0  0  0  0
    7.1960    0.2440   23.2230 N   0  0  0  0  0  0  0  0  0  0  0  0
    7.3370    0.1690   21.8560 C   0  0  0  0  0  0  0  0  0  0  0  0
    8.1260    0.8870   21.2670 O   0  0  0  0  0  0  0  0  0  0  0  0
    6.4570   -0.8210   21.0580 C   0  0  0  0  0  0  0  0  0  0  0  0
    5.8080   -0.1720   19.8520 C   0  0  0  0  0  0  0  0  0  0  0  0
    6.2410   -0.4370   18.5770 C   0  0  0  0  0  0  0  0  0  0  0  0
    5.7600    0.1380   17.4380 N   0  0  0  0  0  0  0  0  0  0  0  0
    4.7880    1.0090   17.5830 C   0  0  0  0  0  0  0  0  0  0  0  0
    4.2290    1.3770   18.8360 C   0  0  0  0  0  0  0  0  0  0  0  0
    3.1800    2.3290   18.9420 C   0  0  0  0  0  0  0  0  0  0  0  0
    2.6590    2.6600   20.1630 C   0  0  0  0  0  0  0  0  0  0  0  0
    3.1670    2.0520   21.3340 C   0  0  0  0  0  0  0  0  0  0  0  0
    4.1850    1.1330   21.2610 C   0  0  0  0  0  0  0  0  0  0  0  0
    4.7480    0.7710   20.0070 C   0  0  0  0  0  0  0  0  0  0  0  0
    4.5680    0.6790   22.1730 H   0  0  0  0  0  0  0  0  0  0  0  0
    2.7490    2.3230   22.2990 H   0  0  0  0  0  0  0  0  0  0  0  0
    1.8580    3.3920   20.2440 H   0  0  0  0  0  0  0  0  0  0  0  0
    2.8050    2.7920   18.0320 H   0  0  0  0  0  0  0  0  0  0  0  0
    4.3990    1.4840   16.6790 H   0  0  0  0  0  0  0  0  0  0  0  0
    7.0310   -1.1700   18.4060 H   0  0  0  0  0  0  0  0  0  0  0  0
    7.1230   -1.6180   20.7070 H   0  0  0  0  0  0  0  0  0  0  0  0
    5.7100   -1.3080   21.6940 H   0  0  0  0  0  0  0  0  0  0  0  0
    7.7530    1.3800   23.9530 C   0  0  0  0  0  0  0  0  0  0  0  0
    7.4460    2.3090   23.4670 H   0  0  0  0  0  0  0  0  0  0  0  0
    8.8510    1.3750   23.9430 H   0  0  0  0  0  0  0  0  0  0  0  0
    5.5440   -0.8230   23.9080 H   0  0  0  0  0  0  0  0  0  0  0  0
    6.0180   -0.4150   26.1690 H   0  0  0  0  0  0  0  0  0  0  0  0
    7.7140   -0.7610   25.9890 H   0  0  0  0  0  0  0  0  0  0  0  0
    7.9310    1.5680   26.1110 H   0  0  0  0  0  0  0  0  0  0  0  0
    6.1700    3.1870   25.4560 H   0  0  0  0  0  0  0  0  0  0  0  0
    5.5310    1.9910   26.5920 H   0  0  0  0  0  0  0  0  0  0  0  0
    5.1530    1.8610   24.8760 H   0  0  0  0  0  0  0  0  0  0  0  0
  1  2  1  0  0  0  0
  1 45  1  0  0  0  0
  1 46  1  0  0  0  0
  1 47  1  0  0  0  0
  2  3  1  0  0  0  0
  2 38  1  0  0  0  0
  2 44  1  1  0  0  0
  3  4  1  0  0  0  0
  3 42  1  0  0  0  0
  3 43  1  0  0  0  0
  4  5  1  0  0  0  0
  4 16  1  0  0  0  0
  4 41  1  6  0  0  0
  5  6  2  0  0  0  0
  5 10  1  0  0  0  0
  6  7  1  0  0  0  0
  6 15  1  0  0  0  0
  7  8  2  0  0  0  0
  7 14  1  0  0  0  0
  8  9  1  0  0  0  0
  8 13  1  0  0  0  0
  9 10  2  0  0  0  0
  9 12  1  0  0  0  0
 10 11  1  0  0  0  0
 16 17  1  0  0  0  0
 16 38  1  0  0  0  0
 17 18  2  0  0  0  0
 17 19  1  0  0  0  0
 19 20  1  0  0  0  0
 19 36  1  0  0  0  0
 19 37  1  0  0  0  0
 20 21  2  0  0  0  0
 20 29  1  0  0  0  0
 21 22  1  0  0  0  0
 21 35  1  0  0  0  0
 22 23  2  0  0  0  0
 23 24  1  0  0  0  0
 23 34  1  0  0  0  0
 24 25  2  0  0  0  0
 24 29  1  0  0  0  0
 25 26  1  0  0  0  0
 25 33  1  0  0  0  0
 26 27  2  0  0  0  0
 26 32  1  0  0  0  0
 27 28  1  0  0  0  0
 27 31  1  0  0  0  0
 28 29  2  0  0  0  0
 28 30  1  0  0  0  0
 38 39  1  0  0  0  0
 38 40  1  0  0  0  0
M  END
>  <MODEL>
       4

$$$$
best_conformers_16.pdb
 OpenBabel02042510453D

 47 50  0  0  1  0  0  0  0  0999 V2000
    7.2400   -1.1230   26.5320 C   0  0  0  0  0  0  0  0  0  0  0  0
    6.8740   -0.0650   25.5000 C   0  0  1  0  0  0  0  0  0  0  0  0
    7.9380    1.0300   25.3510 C   0  0  0  0  0  0  0  0  0  0  0  0
    7.9770    1.4180   23.8640 C   0  0  2  0  0  0  0  0  0  0  0  0
    7.3070    2.7510   23.5840 C   0  0  0  0  0  0  0  0  0  0  0  0
    8.0600    3.8440   23.1600 C   0  0  0  0  0  0  0  0  0  0  0  0
    7.4510    5.0670   22.8940 C   0  0  0  0  0  0  0  0  0  0  0  0
    6.0790    5.2100   23.0620 C   0  0  0  0  0  0  0  0  0  0  0  0
    5.3270    4.1300   23.5130 C   0  0  0  0  0  0  0  0  0  0  0  0
    5.9370    2.9120   23.7780 C   0  0  0  0  0  0  0  0  0  0  0  0
    5.3350    2.0790   24.1360 H   0  0  0  0  0  0  0  0  0  0  0  0
    4.2550    4.2370   23.6520 H   0  0  0  0  0  0  0  0  0  0  0  0
    5.5990    6.1590   22.8400 H   0  0  0  0  0  0  0  0  0  0  0  0
    8.0520    5.9000   22.5390 H   0  0  0  0  0  0  0  0  0  0  0  0
    9.1340    3.7330   23.0300 H   0  0  0  0  0  0  0  0  0  0  0  0
    7.3110    0.3040   23.1800 N   0  0  0  0  0  0  0  0  0  0  0  0
    7.3930    0.2110   21.8100 C   0  0  0  0  0  0  0  0  0  0  0  0
    8.1790    0.8930   21.1740 O   0  0  0  0  0  0  0  0  0  0  0  0
    6.4800   -0.7910   21.0610 C   0  0  0  0  0  0  0  0  0  0  0  0
    5.8110   -0.1670   19.8520 C   0  0  0  0  0  0  0  0  0  0  0  0
    6.2400   -0.4360   18.5780 C   0  0  0  0  0  0  0  0  0  0  0  0
    5.7570    0.1360   17.4380 N   0  0  0  0  0  0  0  0  0  0  0  0
    4.7870    1.0090   17.5830 C   0  0  0  0  0  0  0  0  0  0  0  0
    4.2290    1.3790   18.8360 C   0  0  0  0  0  0  0  0  0  0  0  0
    3.1850    2.3350   18.9430 C   0  0  0  0  0  0  0  0  0  0  0  0
    2.6630    2.6660   20.1630 C   0  0  0  0  0  0  0  0  0  0  0  0
    3.1680    2.0510   21.3310 C   0  0  0  0  0  0  0  0  0  0  0  0
    4.1830    1.1310   21.2620 C   0  0  0  0  0  0  0  0  0  0  0  0
    4.7460    0.7710   20.0080 C   0  0  0  0  0  0  0  0  0  0  0  0
    4.5630    0.6770   22.1760 H   0  0  0  0  0  0  0  0  0  0  0  0
    2.7430    2.3220   22.2940 H   0  0  0  0  0  0  0  0  0  0  0  0
    1.8670    3.4040   20.2420 H   0  0  0  0  0  0  0  0  0  0  0  0
    2.8100    2.8010   18.0340 H   0  0  0  0  0  0  0  0  0  0  0  0
    4.3990    1.4850   16.6790 H   0  0  0  0  0  0  0  0  0  0  0  0
    7.0320   -1.1680   18.4070 H   0  0  0  0  0  0  0  0  0  0  0  0
    5.7490   -1.2700   21.7210 H   0  0  0  0  0  0  0  0  0  0  0  0
    7.1390   -1.5900   20.7010 H   0  0  0  0  0  0  0  0  0  0  0  0
    6.6820   -0.6410   24.0890 C   0  0  0  0  0  0  0  0  0  0  0  0
    5.6170   -0.7790   23.8670 H   0  0  0  0  0  0  0  0  0  0  0  0
    7.1520   -1.6260   23.9960 H   0  0  0  0  0  0  0  0  0  0  0  0
    9.0110    1.4840   23.5160 H   0  0  0  0  0  0  0  0  0  0  0  0
    7.7280    1.8870   25.9950 H   0  0  0  0  0  0  0  0  0  0  0  0
    8.9100    0.6490   25.6760 H   0  0  0  0  0  0  0  0  0  0  0  0
    5.9350    0.4010   25.8150 H   0  0  0  0  0  0  0  0  0  0  0  0
    6.4730   -1.9000   26.6150 H   0  0  0  0  0  0  0  0  0  0  0  0
    7.3810   -0.6920   27.5290 H   0  0  0  0  0  0  0  0  0  0  0  0
    8.1800   -1.6140   26.2590 H   0  0  0  0  0  0  0  0  0  0  0  0
  1  2  1  0  0  0  0
  1 45  1  0  0  0  0
  1 46  1  0  0  0  0
  1 47  1  0  0  0  0
  2  3  1  0  0  0  0
  2 38  1  0  0  0  0
  2 44  1  1  0  0  0
  3  4  1  0  0  0  0
  3 42  1  0  0  0  0
  3 43  1  0  0  0  0
  4  5  1  0  0  0  0
  4 16  1  0  0  0  0
  4 41  1  6  0  0  0
  5  6  2  0  0  0  0
  5 10  1  0  0  0  0
  6  7  1  0  0  0  0
  6 15  1  0  0  0  0
  7  8  2  0  0  0  0
  7 14  1  0  0  0  0
  8  9  1  0  0  0  0
  8 13  1  0  0  0  0
  9 10  2  0  0  0  0
  9 12  1  0  0  0  0
 10 11  1  0  0  0  0
 16 17  1  0  0  0  0
 16 38  1  0  0  0  0
 17 18  2  0  0  0  0
 17 19  1  0  0  0  0
 19 20  1  0  0  0  0
 19 36  1  0  0  0  0
 19 37  1  0  0  0  0
 20 21  2  0  0  0  0
 20 29  1  0  0  0  0
 21 22  1  0  0  0  0
 21 35  1  0  0  0  0
 22 23  2  0  0  0  0
 23 24  1  0  0  0  0
 23 34  1  0  0  0  0
 24 25  2  0  0  0  0
 24 29  1  0  0  0  0
 25 26  1  0  0  0  0
 25 33  1  0  0  0  0
 26 27  2  0  0  0  0
 26 32  1  0  0  0  0
 27 28  1  0  0  0  0
 27 31  1  0  0  0  0
 28 29  2  0  0  0  0
 28 30  1  0  0  0  0
 38 39  1  0  0  0  0
 38 40  1  0  0  0  0
M  END
>  <MODEL>
       5

$$$$
best_conformers_16.pdb
 OpenBabel02042510453D

 47 50  0  0  1  0  0  0  0  0999 V2000
    7.2400   -1.1230   26.5320 C   0  0  0  0  0  0  0  0  0  0  0  0
    6.8740   -0.0640   25.5000 C   0  0  1  0  0  0  0  0  0  0  0  0
    7.9380    1.0300   25.3510 C   0  0  0  0  0  0  0  0  0  0  0  0
    7.9770    1.4180   23.8640 C   0  0  2  0  0  0  0  0  0  0  0  0
    7.3070    2.7510   23.5840 C   0  0  0  0  0  0  0  0  0  0  0  0
    5.9370    2.9120   23.7780 C   0  0  0  0  0  0  0  0  0  0  0  0
    5.3270    4.1300   23.5130 C   0  0  0  0  0  0  0  0  0  0  0  0
    6.0790    5.2100   23.0620 C   0  0  0  0  0  0  0  0  0  0  0  0
    7.4500    5.0670   22.8930 C   0  0  0  0  0  0  0  0  0  0  0  0
    8.0600    3.8440   23.1600 C   0  0  0  0  0  0  0  0  0  0  0  0
    9.1340    3.7330   23.0300 H   0  0  0  0  0  0  0  0  0  0  0  0
    8.0520    5.9000   22.5390 H   0  0  0  0  0  0  0  0  0  0  0  0
    5.5980    6.1590   22.8400 H   0  0  0  0  0  0  0  0  0  0  0  0
    4.2550    4.2370   23.6510 H   0  0  0  0  0  0  0  0  0  0  0  0
    5.3350    2.0790   24.1350 H   0  0  0  0  0  0  0  0  0  0  0  0
    7.3110    0.3040   23.1800 N   0  0  0  0  0  0  0  0  0  0  0  0
    7.3930    0.2120   21.8100 C   0  0  0  0  0  0  0  0  0  0  0  0
    8.1790    0.8930   21.1740 O   0  0  0  0  0  0  0  0  0  0  0  0
    6.4800   -0.7910   21.0610 C   0  0  0  0  0  0  0  0  0  0  0  0
    5.8110   -0.1670   19.8520 C   0  0  0  0  0  0  0  0  0  0  0  0
    6.2400   -0.4360   18.5780 C   0  0  0  0  0  0  0  0  0  0  0  0
    5.7570    0.1360   17.4380 N   0  0  0  0  0  0  0  0  0  0  0  0
    4.7870    1.0090   17.5830 C   0  0  0  0  0  0  0  0  0  0  0  0
    4.2290    1.3790   18.8360 C   0  0  0  0  0  0  0  0  0  0  0  0
    3.1850    2.3350   18.9430 C   0  0  0  0  0  0  0  0  0  0  0  0
    2.6630    2.6660   20.1630 C   0  0  0  0  0  0  0  0  0  0  0  0
    3.1670    2.0510   21.3310 C   0  0  0  0  0  0  0  0  0  0  0  0
    4.1830    1.1310   21.2620 C   0  0  0  0  0  0  0  0  0  0  0  0
    4.7460    0.7710   20.0080 C   0  0  0  0  0  0  0  0  0  0  0  0
    4.5620    0.6770   22.1760 H   0  0  0  0  0  0  0  0  0  0  0  0
    2.7430    2.3220   22.2940 H   0  0  0  0  0  0  0  0  0  0  0  0
    1.8670    3.4040   20.2420 H   0  0  0  0  0  0  0  0  0  0  0  0
    2.8100    2.8010   18.0340 H   0  0  0  0  0  0  0  0  0  0  0  0
    4.3990    1.4850   16.6790 H   0  0  0  0  0  0  0  0  0  0  0  0
    7.0320   -1.1680   18.4070 H   0  0  0  0  0  0  0  0  0  0  0  0
    5.7490   -1.2700   21.7210 H   0  0  0  0  0  0  0  0  0  0  0  0
    7.1390   -1.5900   20.7010 H   0  0  0  0  0  0  0  0  0  0  0  0
    6.6820   -0.6410   24.0890 C   0  0  0  0  0  0  0  0  0  0  0  0
    7.1520   -1.6260   23.9960 H   0  0  0  0  0  0  0  0  0  0  0  0
    5.6170   -0.7790   23.8670 H   0  0  0  0  0  0  0  0  0  0  0  0
    9.0110    1.4840   23.5160 H   0  0  0  0  0  0  0  0  0  0  0  0
    8.9100    0.6490   25.6760 H   0  0  0  0  0  0  0  0  0  0  0  0
    7.7280    1.8870   25.9950 H   0  0  0  0  0  0  0  0  0  0  0  0
    5.9350    0.4010   25.8150 H   0  0  0  0  0  0  0  0  0  0  0  0
    7.3810   -0.6920   27.5290 H   0  0  0  0  0  0  0  0  0  0  0  0
    8.1800   -1.6140   26.2590 H   0  0  0  0  0  0  0  0  0  0  0  0
    6.4730   -1.9000   26.6150 H   0  0  0  0  0  0  0  0  0  0  0  0
  1  2  1  0  0  0  0
  1 45  1  0  0  0  0
  1 46  1  0  0  0  0
  1 47  1  0  0  0  0
  2  3  1  0  0  0  0
  2 38  1  0  0  0  0
  2 44  1  1  0  0  0
  3  4  1  0  0  0  0
  3 42  1  0  0  0  0
  3 43  1  0  0  0  0
  4  5  1  0  0  0  0
  4 16  1  0  0  0  0
  4 41  1  6  0  0  0
  5  6  2  0  0  0  0
  5 10  1  0  0  0  0
  6  7  1  0  0  0  0
  6 15  1  0  0  0  0
  7  8  2  0  0  0  0
  7 14  1  0  0  0  0
  8  9  1  0  0  0  0
  8 13  1  0  0  0  0
  9 10  2  0  0  0  0
  9 12  1  0  0  0  0
 10 11  1  0  0  0  0
 16 17  1  0  0  0  0
 16 38  1  0  0  0  0
 17 18  2  0  0  0  0
 17 19  1  0  0  0  0
 19 20  1  0  0  0  0
 19 36  1  0  0  0  0
 19 37  1  0  0  0  0
 20 21  2  0  0  0  0
 20 29  1  0  0  0  0
 21 22  1  0  0  0  0
 21 35  1  0  0  0  0
 22 23  2  0  0  0  0
 23 24  1  0  0  0  0
 23 34  1  0  0  0  0
 24 25  2  0  0  0  0
 24 29  1  0  0  0  0
 25 26  1  0  0  0  0
 25 33  1  0  0  0  0
 26 27  2  0  0  0  0
 26 32  1  0  0  0  0
 27 28  1  0  0  0  0
 27 31  1  0  0  0  0
 28 29  2  0  0  0  0
 28 30  1  0  0  0  0
 38 39  1  0  0  0  0
 38 40  1  0  0  0  0
M  END
>  <MODEL>
       6

$$$$
