best_conformers_46.pdb
 OpenBabel02042510453D

 64 68  0  0  1  0  0  0  0  0999 V2000
    3.7030   -4.8190   23.4260 C   0  0  0  0  0  0  0  0  0  0  0  0
    4.6220   -5.2060   22.2790 C   0  0  0  0  0  0  0  0  0  0  0  0
    6.3440   -5.1340   22.7740 S   0  0  0  0  0  0  0  0  0  0  0  0
    7.1420   -5.4020   21.5830 O   0  0  0  0  0  0  0  0  0  0  0  0
    6.5260   -5.9330   23.9740 O   0  0  0  0  0  0  0  0  0  0  0  0
    6.5130   -3.5490   23.2940 N   0  0  0  0  0  0  0  0  0  0  0  0
    7.0590   -2.5390   22.3890 C   0  0  1  0  0  0  0  0  0  0  0  0
    6.0590   -2.1980   21.2880 C   0  0  0  0  0  0  0  0  0  0  0  0
    6.4150   -0.8430   20.9440 N   0  0  0  0  0  0  0  0  0  0  0  0
    5.8290   -0.1700   19.8550 C   0  0  0  0  0  0  0  0  0  0  0  0
    6.2640   -0.4640   18.5910 C   0  0  0  0  0  0  0  0  0  0  0  0
    5.7960    0.1110   17.4590 N   0  0  0  0  0  0  0  0  0  0  0  0
    4.8280    0.9870   17.6060 C   0  0  0  0  0  0  0  0  0  0  0  0
    4.2610    1.3580   18.8610 C   0  0  0  0  0  0  0  0  0  0  0  0
    3.2040    2.3030   18.9480 C   0  0  0  0  0  0  0  0  0  0  0  0
    2.6550    2.6210   20.1600 C   0  0  0  0  0  0  0  0  0  0  0  0
    3.1330    2.0130   21.3440 C   0  0  0  0  0  0  0  0  0  0  0  0
    4.1600    1.1050   21.2890 C   0  0  0  0  0  0  0  0  0  0  0  0
    4.7610    0.7620   20.0380 C   0  0  0  0  0  0  0  0  0  0  0  0
    4.5130    0.6530   22.2130 H   0  0  0  0  0  0  0  0  0  0  0  0
    2.6820    2.2750   22.2980 H   0  0  0  0  0  0  0  0  0  0  0  0
    1.8480    3.3440   20.2190 H   0  0  0  0  0  0  0  0  0  0  0  0
    2.8460    2.7600   18.0290 H   0  0  0  0  0  0  0  0  0  0  0  0
    4.4300    1.4440   16.7010 H   0  0  0  0  0  0  0  0  0  0  0  0
    7.0630   -1.1950   18.4730 H   0  0  0  0  0  0  0  0  0  0  0  0
    7.1420   -0.1830   21.9050 C   0  0  0  0  0  0  0  0  0  0  0  0
    7.4520    0.9880   21.8410 O   0  0  0  0  0  0  0  0  0  0  0  0
    7.4190   -1.1640   23.0460 C   0  0  1  0  0  0  0  0  0  0  0  0
    6.5080   -0.7470   24.2300 C   0  0  0  0  0  0  0  0  0  0  0  0
    6.8420   -1.4620   25.4480 N   0  0  0  0  0  0  0  0  0  0  0  0
    5.7950   -1.8360   26.3790 C   0  0  0  0  0  0  0  0  0  0  0  0
    5.2220   -0.6350   27.1420 C   0  0  0  0  0  0  0  0  0  0  0  0
    4.3050    0.0370   26.6980 O   0  0  0  0  0  0  0  0  0  0  0  0
    5.8050   -0.3960   28.3520 N   0  0  0  0  0  0  0  0  0  0  0  0
    5.3250    0.7220   29.1480 C   0  0  0  0  0  0  0  0  0  0  0  0
    4.2640    0.5770   29.3970 H   0  0  0  0  0  0  0  0  0  0  0  0
    5.9010    0.7910   30.0780 H   0  0  0  0  0  0  0  0  0  0  0  0
    5.4180    1.6640   28.5870 H   0  0  0  0  0  0  0  0  0  0  0  0
    6.6670   -0.8680   28.6040 H   0  0  0  0  0  0  0  0  0  0  0  0
    6.2380   -2.5550   27.0760 H   0  0  0  0  0  0  0  0  0  0  0  0
    4.9680   -2.2950   25.8240 H   0  0  0  0  0  0  0  0  0  0  0  0
    8.1330   -1.5970   25.8680 C   0  0  0  0  0  0  0  0  0  0  0  0
    8.4080   -1.9970   26.9910 O   0  0  0  0  0  0  0  0  0  0  0  0
    9.1820   -1.2910   24.8590 C   0  0  0  0  0  0  0  0  0  0  0  0
   10.5060   -1.2960   25.2850 C   0  0  0  0  0  0  0  0  0  0  0  0
   11.5320   -1.1420   24.3730 C   0  0  0  0  0  0  0  0  0  0  0  0
   11.2080   -0.9850   23.0240 C   0  0  0  0  0  0  0  0  0  0  0  0
   12.4910   -0.8380   21.8580 Cl  0  0  0  0  0  0  0  0  0  0  0  0
    9.8940   -0.9680   22.5890 C   0  0  0  0  0  0  0  0  0  0  0  0
    8.8550   -1.1120   23.5130 C   0  0  0  0  0  0  0  0  0  0  0  0
    9.6700   -0.8470   21.5340 H   0  0  0  0  0  0  0  0  0  0  0  0
   12.5710   -1.1600   24.6850 H   0  0  0  0  0  0  0  0  0  0  0  0
   10.6910   -1.4380   26.3440 H   0  0  0  0  0  0  0  0  0  0  0  0
    6.6210    0.3400   24.3670 H   0  0  0  0  0  0  0  0  0  0  0  0
    5.4540   -0.9480   24.0010 H   0  0  0  0  0  0  0  0  0  0  0  0
    5.0330   -2.2460   21.6820 H   0  0  0  0  0  0  0  0  0  0  0  0
    6.1360   -2.8560   20.4190 H   0  0  0  0  0  0  0  0  0  0  0  0
    7.9770   -2.9270   21.9320 H   0  0  0  0  0  0  0  0  0  0  0  0
    6.9080   -3.5730   24.2290 H   0  0  0  0  0  0  0  0  0  0  0  0
    4.5050   -4.5670   21.3980 H   0  0  0  0  0  0  0  0  0  0  0  0
    4.4940   -6.2470   21.9650 H   0  0  0  0  0  0  0  0  0  0  0  0
    3.9220   -3.7990   23.7560 H   0  0  0  0  0  0  0  0  0  0  0  0
    2.6520   -4.8850   23.1260 H   0  0  0  0  0  0  0  0  0  0  0  0
    3.8730   -5.4820   24.2730 H   0  0  0  0  0  0  0  0  0  0  0  0
  1  2  1  0  0  0  0
  1 62  1  0  0  0  0
  1 63  1  0  0  0  0
  1 64  1  0  0  0  0
  2  3  1  0  0  0  0
  2 60  1  0  0  0  0
  2 61  1  0  0  0  0
  3  4  2  0  0  0  0
  3  5  2  0  0  0  0
  3  6  1  0  0  0  0
  6  7  1  0  0  0  0
  6 59  1  0  0  0  0
  7  8  1  0  0  0  0
  7 28  1  0  0  0  0
  7 58  1  6  0  0  0
  8  9  1  0  0  0  0
  8 56  1  0  0  0  0
  8 57  1  0  0  0  0
  9 10  1  0  0  0  0
  9 26  1  0  0  0  0
 10 11  2  0  0  0  0
 10 19  1  0  0  0  0
 11 12  1  0  0  0  0
 11 25  1  0  0  0  0
 12 13  2  0  0  0  0
 13 14  1  0  0  0  0
 13 24  1  0  0  0  0
 14 15  2  0  0  0  0
 14 19  1  0  0  0  0
 15 16  1  0  0  0  0
 15 23  1  0  0  0  0
 16 17  2  0  0  0  0
 16 22  1  0  0  0  0
 17 18  1  0  0  0  0
 17 21  1  0  0  0  0
 18 19  2  0  0  0  0
 18 20  1  0  0  0  0
 26 27  2  0  0  0  0
 28 26  1  6  0  0  0
 28 29  1  0  0  0  0
 28 50  1  0  0  0  0
 29 30  1  0  0  0  0
 29 54  1  0  0  0  0
 29 55  1  0  0  0  0
 30 31  1  0  0  0  0
 30 42  1  0  0  0  0
 31 32  1  0  0  0  0
 31 40  1  0  0  0  0
 31 41  1  0  0  0  0
 32 33  2  0  0  0  0
 32 34  1  0  0  0  0
 34 35  1  0  0  0  0
 34 39  1  0  0  0  0
 35 36  1  0  0  0  0
 35 37  1  0  0  0  0
 35 38  1  0  0  0  0
 42 43  2  0  0  0  0
 42 44  1  0  0  0  0
 44 45  2  0  0  0  0
 44 50  1  0  0  0  0
 45 46  1  0  0  0  0
 45 53  1  0  0  0  0
 46 47  2  0  0  0  0
 46 52  1  0  0  0  0
 47 48  1  0  0  0  0
 47 49  1  0  0  0  0
 49 50  2  0  0  0  0
 49 51  1  0  0  0  0
M  END
>  <MODEL>
       1

$$$$
best_conformers_46.pdb
 OpenBabel02042510453D

 64 68  0  0  1  0  0  0  0  0999 V2000
    5.0590   -6.8900   21.6260 C   0  0  0  0  0  0  0  0  0  0  0  0
    5.1280   -5.4040   21.9790 C   0  0  0  0  0  0  0  0  0  0  0  0
    6.7850   -5.1260   22.5920 S   0  0  0  0  0  0  0  0  0  0  0  0
    7.0040   -5.9600   23.7650 O   0  0  0  0  0  0  0  0  0  0  0  0
    7.6500   -5.2200   21.4270 O   0  0  0  0  0  0  0  0  0  0  0  0
    6.7440   -3.5690   23.1950 N   0  0  0  0  0  0  0  0  0  0  0  0
    7.2300   -2.4780   22.3510 C   0  0  1  0  0  0  0  0  0  0  0  0
    6.2270   -2.1960   21.2410 C   0  0  0  0  0  0  0  0  0  0  0  0
    6.4370   -0.7990   20.9580 N   0  0  0  0  0  0  0  0  0  0  0  0
    5.8320   -0.1580   19.8610 C   0  0  0  0  0  0  0  0  0  0  0  0
    6.2640   -0.4610   18.5960 C   0  0  0  0  0  0  0  0  0  0  0  0
    5.7930    0.1120   17.4630 N   0  0  0  0  0  0  0  0  0  0  0  0
    4.8250    0.9880   17.6080 C   0  0  0  0  0  0  0  0  0  0  0  0
    4.2550    1.3570   18.8600 C   0  0  0  0  0  0  0  0  0  0  0  0
    3.1970    2.3000   18.9470 C   0  0  0  0  0  0  0  0  0  0  0  0
    2.6420    2.6130   20.1560 C   0  0  0  0  0  0  0  0  0  0  0  0
    3.1120    1.9980   21.3400 C   0  0  0  0  0  0  0  0  0  0  0  0
    4.1410    1.0930   21.2860 C   0  0  0  0  0  0  0  0  0  0  0  0
    4.7530    0.7620   20.0380 C   0  0  0  0  0  0  0  0  0  0  0  0
    4.4910    0.6370   22.2090 H   0  0  0  0  0  0  0  0  0  0  0  0
    2.6580    2.2520   22.2940 H   0  0  0  0  0  0  0  0  0  0  0  0
    1.8350    3.3380   20.2160 H   0  0  0  0  0  0  0  0  0  0  0  0
    2.8450    2.7620   18.0290 H   0  0  0  0  0  0  0  0  0  0  0  0
    4.4300    1.4460   16.7020 H   0  0  0  0  0  0  0  0  0  0  0  0
    7.0630   -1.1910   18.4720 H   0  0  0  0  0  0  0  0  0  0  0  0
    7.0840   -0.1140   21.9590 C   0  0  0  0  0  0  0  0  0  0  0  0
    7.2860    1.0850   21.9440 O   0  0  0  0  0  0  0  0  0  0  0  0
    7.4340   -1.1060   23.0690 C   0  0  1  0  0  0  0  0  0  0  0  0
    6.4440   -0.8560   24.2340 C   0  0  0  0  0  0  0  0  0  0  0  0
    6.8250   -1.5820   25.4310 N   0  0  0  0  0  0  0  0  0  0  0  0
    5.8040   -2.1210   26.3120 C   0  0  0  0  0  0  0  0  0  0  0  0
    5.1160   -1.0370   27.1500 C   0  0  0  0  0  0  0  0  0  0  0  0
    4.1960   -0.3610   26.7080 O   0  0  0  0  0  0  0  0  0  0  0  0
    5.5930   -0.9020   28.4190 N   0  0  0  0  0  0  0  0  0  0  0  0
    5.0070    0.1050   29.2880 C   0  0  0  0  0  0  0  0  0  0  0  0
    5.5140    0.1000   30.2580 H   0  0  0  0  0  0  0  0  0  0  0  0
    3.9420   -0.1080   29.4460 H   0  0  0  0  0  0  0  0  0  0  0  0
    5.0870    1.1040   28.8390 H   0  0  0  0  0  0  0  0  0  0  0  0
    6.4720   -1.3370   28.6750 H   0  0  0  0  0  0  0  0  0  0  0  0
    6.2960   -2.8540   26.9590 H   0  0  0  0  0  0  0  0  0  0  0  0
    5.0330   -2.6060   25.7020 H   0  0  0  0  0  0  0  0  0  0  0  0
    8.1080   -1.5750   25.8940 C   0  0  0  0  0  0  0  0  0  0  0  0
    8.3880   -1.9840   27.0100 O   0  0  0  0  0  0  0  0  0  0  0  0
    9.1470   -1.1050   24.9350 C   0  0  0  0  0  0  0  0  0  0  0  0
   10.4500   -0.9690   25.4040 C   0  0  0  0  0  0  0  0  0  0  0  0
   11.4770   -0.6590   24.5330 C   0  0  0  0  0  0  0  0  0  0  0  0
   11.1770   -0.4960   23.1790 C   0  0  0  0  0  0  0  0  0  0  0  0
   12.4650   -0.1530   22.0610 Cl  0  0  0  0  0  0  0  0  0  0  0  0
    9.8840   -0.6210   22.7020 C   0  0  0  0  0  0  0  0  0  0  0  0
    8.8410   -0.9160   23.5860 C   0  0  0  0  0  0  0  0  0  0  0  0
    9.6760   -0.4890   21.6450 H   0  0  0  0  0  0  0  0  0  0  0  0
   12.5030   -0.5620   24.8750 H   0  0  0  0  0  0  0  0  0  0  0  0
   10.6280   -1.1240   26.4630 H   0  0  0  0  0  0  0  0  0  0  0  0
    6.4100    0.2270   24.4230 H   0  0  0  0  0  0  0  0  0  0  0  0
    5.4360   -1.1790   23.9550 H   0  0  0  0  0  0  0  0  0  0  0  0
    5.2100   -2.3810   21.6130 H   0  0  0  0  0  0  0  0  0  0  0  0
    6.3900   -2.8080   20.3540 H   0  0  0  0  0  0  0  0  0  0  0  0
    8.1950   -2.7590   21.9150 H   0  0  0  0  0  0  0  0  0  0  0  0
    7.1510   -3.6080   24.1250 H   0  0  0  0  0  0  0  0  0  0  0  0
    4.4290   -5.1030   22.7670 H   0  0  0  0  0  0  0  0  0  0  0  0
    4.9780   -4.7650   21.1020 H   0  0  0  0  0  0  0  0  0  0  0  0
    5.3850   -7.4790   22.4890 H   0  0  0  0  0  0  0  0  0  0  0  0
    4.0470   -7.2100   21.3640 H   0  0  0  0  0  0  0  0  0  0  0  0
    5.7320   -7.0990   20.7860 H   0  0  0  0  0  0  0  0  0  0  0  0
  1  2  1  0  0  0  0
  1 62  1  0  0  0  0
  1 63  1  0  0  0  0
  1 64  1  0  0  0  0
  2  3  1  0  0  0  0
  2 60  1  0  0  0  0
  2 61  1  0  0  0  0
  3  4  2  0  0  0  0
  3  5  2  0  0  0  0
  3  6  1  0  0  0  0
  6  7  1  0  0  0  0
  6 59  1  0  0  0  0
  7  8  1  0  0  0  0
  7 28  1  0  0  0  0
  7 58  1  6  0  0  0
  8  9  1  0  0  0  0
  8 56  1  0  0  0  0
  8 57  1  0  0  0  0
  9 10  1  0  0  0  0
  9 26  1  0  0  0  0
 10 11  2  0  0  0  0
 10 19  1  0  0  0  0
 11 12  1  0  0  0  0
 11 25  1  0  0  0  0
 12 13  2  0  0  0  0
 13 14  1  0  0  0  0
 13 24  1  0  0  0  0
 14 15  2  0  0  0  0
 14 19  1  0  0  0  0
 15 16  1  0  0  0  0
 15 23  1  0  0  0  0
 16 17  2  0  0  0  0
 16 22  1  0  0  0  0
 17 18  1  0  0  0  0
 17 21  1  0  0  0  0
 18 19  2  0  0  0  0
 18 20  1  0  0  0  0
 26 27  2  0  0  0  0
 28 26  1  6  0  0  0
 28 29  1  0  0  0  0
 28 50  1  0  0  0  0
 29 30  1  0  0  0  0
 29 54  1  0  0  0  0
 29 55  1  0  0  0  0
 30 31  1  0  0  0  0
 30 42  1  0  0  0  0
 31 32  1  0  0  0  0
 31 40  1  0  0  0  0
 31 41  1  0  0  0  0
 32 33  2  0  0  0  0
 32 34  1  0  0  0  0
 34 35  1  0  0  0  0
 34 39  1  0  0  0  0
 35 36  1  0  0  0  0
 35 37  1  0  0  0  0
 35 38  1  0  0  0  0
 42 43  2  0  0  0  0
 42 44  1  0  0  0  0
 44 45  2  0  0  0  0
 44 50  1  0  0  0  0
 45 46  1  0  0  0  0
 45 53  1  0  0  0  0
 46 47  2  0  0  0  0
 46 52  1  0  0  0  0
 47 48  1  0  0  0  0
 47 49  1  0  0  0  0
 49 50  2  0  0  0  0
 49 51  1  0  0  0  0
M  END
>  <MODEL>
       2

$$$$
best_conformers_46.pdb
 OpenBabel02042510453D

 64 68  0  0  1  0  0  0  0  0999 V2000
   12.2980   -1.5730   24.6930 C   0  0  0  0  0  0  0  0  0  0  0  0
   10.9380   -2.1210   24.2860 C   0  0  0  0  0  0  0  0  0  0  0  0
   10.6210   -1.7400   22.5730 S   0  0  0  0  0  0  0  0  0  0  0  0
   11.5150   -2.5210   21.7380 O   0  0  0  0  0  0  0  0  0  0  0  0
   10.5740   -0.2890   22.4370 O   0  0  0  0  0  0  0  0  0  0  0  0
    9.0840   -2.4000   22.3700 N   0  0  0  0  0  0  0  0  0  0  0  0
    7.9250   -1.5270   22.6320 C   0  0  1  0  0  0  0  0  0  0  0  0
    7.6670   -0.4850   21.5160 C   0  0  0  0  0  0  0  0  0  0  0  0
    6.3930   -0.8660   20.9620 N   0  0  0  0  0  0  0  0  0  0  0  0
    5.8060   -0.2040   19.8580 C   0  0  0  0  0  0  0  0  0  0  0  0
    6.2750   -0.4520   18.5940 C   0  0  0  0  0  0  0  0  0  0  0  0
    5.7980    0.1270   17.4650 N   0  0  0  0  0  0  0  0  0  0  0  0
    4.8160    0.9870   17.6100 C   0  0  0  0  0  0  0  0  0  0  0  0
    4.2440    1.3440   18.8650 C   0  0  0  0  0  0  0  0  0  0  0  0
    3.2020    2.3040   18.9590 C   0  0  0  0  0  0  0  0  0  0  0  0
    2.6840    2.6490   20.1740 C   0  0  0  0  0  0  0  0  0  0  0  0
    3.1810    2.0520   21.3560 C   0  0  0  0  0  0  0  0  0  0  0  0
    4.1860    1.1170   21.3000 C   0  0  0  0  0  0  0  0  0  0  0  0
    4.7430    0.7360   20.0400 C   0  0  0  0  0  0  0  0  0  0  0  0
    4.5640    0.6860   22.2290 H   0  0  0  0  0  0  0  0  0  0  0  0
    2.7650    2.3460   22.3160 H   0  0  0  0  0  0  0  0  0  0  0  0
    1.8890    3.3890   20.2440 H   0  0  0  0  0  0  0  0  0  0  0  0
    2.8410    2.7670   18.0440 H   0  0  0  0  0  0  0  0  0  0  0  0
    4.4290    1.4610   16.7070 H   0  0  0  0  0  0  0  0  0  0  0  0
    7.0720   -1.1820   18.4510 H   0  0  0  0  0  0  0  0  0  0  0  0
    5.7490   -1.8850   21.6140 C   0  0  0  0  0  0  0  0  0  0  0  0
    4.6920   -2.3660   21.2590 O   0  0  0  0  0  0  0  0  0  0  0  0
    6.5860   -2.2930   22.8370 C   0  0  1  0  0  0  0  0  0  0  0  0
    6.7800   -3.8210   22.8760 C   0  0  0  0  0  0  0  0  0  0  0  0
    5.5660   -4.5280   23.2610 N   0  0  0  0  0  0  0  0  0  0  0  0
    5.2230   -5.7610   22.5820 C   0  0  0  0  0  0  0  0  0  0  0  0
    5.9580   -6.9820   23.1340 C   0  0  0  0  0  0  0  0  0  0  0  0
    5.4710   -7.6830   24.0070 O   0  0  0  0  0  0  0  0  0  0  0  0
    7.2030   -7.2460   22.6430 N   0  0  0  0  0  0  0  0  0  0  0  0
    7.8970   -8.3650   23.2530 C   0  0  0  0  0  0  0  0  0  0  0  0
    8.9240   -8.4340   22.8960 H   0  0  0  0  0  0  0  0  0  0  0  0
    7.3740   -9.3110   23.0670 H   0  0  0  0  0  0  0  0  0  0  0  0
    7.9120   -8.2130   24.3350 H   0  0  0  0  0  0  0  0  0  0  0  0
    7.5960   -6.7830   21.8360 H   0  0  0  0  0  0  0  0  0  0  0  0
    4.1630   -5.9490   22.7570 H   0  0  0  0  0  0  0  0  0  0  0  0
    5.4220   -5.6240   21.5120 H   0  0  0  0  0  0  0  0  0  0  0  0
    4.8000   -4.1380   24.3270 C   0  0  0  0  0  0  0  0  0  0  0  0
    3.9420   -4.8530   24.8250 O   0  0  0  0  0  0  0  0  0  0  0  0
    5.0430   -2.7460   24.8120 C   0  0  0  0  0  0  0  0  0  0  0  0
    4.3700   -2.3490   25.9660 C   0  0  0  0  0  0  0  0  0  0  0  0
    4.4650   -1.0460   26.4140 C   0  0  0  0  0  0  0  0  0  0  0  0
    5.2270   -0.1390   25.6760 C   0  0  0  0  0  0  0  0  0  0  0  0
    5.3130    1.5250   26.1940 Cl  0  0  0  0  0  0  0  0  0  0  0  0
    5.9130   -0.5260   24.5370 C   0  0  0  0  0  0  0  0  0  0  0  0
    5.8550   -1.8590   24.1030 C   0  0  0  0  0  0  0  0  0  0  0  0
    6.4900    0.2190   23.9940 H   0  0  0  0  0  0  0  0  0  0  0  0
    3.9390   -0.7130   27.3010 H   0  0  0  0  0  0  0  0  0  0  0  0
    3.7660   -3.0940   26.4760 H   0  0  0  0  0  0  0  0  0  0  0  0
    7.0660   -4.1620   21.8780 H   0  0  0  0  0  0  0  0  0  0  0  0
    7.5830   -4.0460   23.5830 H   0  0  0  0  0  0  0  0  0  0  0  0
    7.6210    0.5290   21.9350 H   0  0  0  0  0  0  0  0  0  0  0  0
    8.4460   -0.4850   20.7490 H   0  0  0  0  0  0  0  0  0  0  0  0
    8.1610   -1.0190   23.5670 H   0  0  0  0  0  0  0  0  0  0  0  0
    9.0650   -2.8390   21.4500 H   0  0  0  0  0  0  0  0  0  0  0  0
   10.8790   -3.2100   24.3740 H   0  0  0  0  0  0  0  0  0  0  0  0
   10.1220   -1.6720   24.8630 H   0  0  0  0  0  0  0  0  0  0  0  0
   13.0910   -2.0360   24.1000 H   0  0  0  0  0  0  0  0  0  0  0  0
   12.4930   -1.7740   25.7510 H   0  0  0  0  0  0  0  0  0  0  0  0
   12.3380   -0.4940   24.5290 H   0  0  0  0  0  0  0  0  0  0  0  0
  1  2  1  0  0  0  0
  1 62  1  0  0  0  0
  1 63  1  0  0  0  0
  1 64  1  0  0  0  0
  2  3  1  0  0  0  0
  2 60  1  0  0  0  0
  2 61  1  0  0  0  0
  3  4  2  0  0  0  0
  3  5  2  0  0  0  0
  3  6  1  0  0  0  0
  6  7  1  0  0  0  0
  6 59  1  0  0  0  0
  7  8  1  0  0  0  0
  7 28  1  0  0  0  0
  7 58  1  1  0  0  0
  8  9  1  0  0  0  0
  8 56  1  0  0  0  0
  8 57  1  0  0  0  0
  9 10  1  0  0  0  0
  9 26  1  0  0  0  0
 10 11  2  0  0  0  0
 10 19  1  0  0  0  0
 11 12  1  0  0  0  0
 11 25  1  0  0  0  0
 12 13  2  0  0  0  0
 13 14  1  0  0  0  0
 13 24  1  0  0  0  0
 14 15  2  0  0  0  0
 14 19  1  0  0  0  0
 15 16  1  0  0  0  0
 15 23  1  0  0  0  0
 16 17  2  0  0  0  0
 16 22  1  0  0  0  0
 17 18  1  0  0  0  0
 17 21  1  0  0  0  0
 18 19  2  0  0  0  0
 18 20  1  0  0  0  0
 26 27  2  0  0  0  0
 28 26  1  6  0  0  0
 28 29  1  0  0  0  0
 28 50  1  0  0  0  0
 29 30  1  0  0  0  0
 29 54  1  0  0  0  0
 29 55  1  0  0  0  0
 30 31  1  0  0  0  0
 30 42  1  0  0  0  0
 31 32  1  0  0  0  0
 31 40  1  0  0  0  0
 31 41  1  0  0  0  0
 32 33  2  0  0  0  0
 32 34  1  0  0  0  0
 34 35  1  0  0  0  0
 34 39  1  0  0  0  0
 35 36  1  0  0  0  0
 35 37  1  0  0  0  0
 35 38  1  0  0  0  0
 42 43  2  0  0  0  0
 42 44  1  0  0  0  0
 44 45  2  0  0  0  0
 44 50  1  0  0  0  0
 45 46  1  0  0  0  0
 45 53  1  0  0  0  0
 46 47  2  0  0  0  0
 46 52  1  0  0  0  0
 47 48  1  0  0  0  0
 47 49  1  0  0  0  0
 49 50  2  0  0  0  0
 49 51  1  0  0  0  0
M  END
>  <MODEL>
       3

$$$$
