best_conformers_13.pdb
 OpenBabel02042510453D

 67 72  0  0  1  0  0  0  0  0999 V2000
    5.1750   -8.1010   25.4930 C   0  0  0  0  0  0  0  0  0  0  0  0
    4.6550   -6.9270   24.8250 N   0  0  0  0  0  0  0  0  0  0  0  0
    5.2570   -6.4980   23.6900 C   0  0  0  0  0  0  0  0  0  0  0  0
    6.2520   -7.0230   23.2100 O   0  0  0  0  0  0  0  0  0  0  0  0
    4.6080   -5.2640   23.0640 C   0  0  0  0  0  0  0  0  0  0  0  0
    5.1790   -4.0630   23.6320 N   0  0  0  0  0  0  0  0  0  0  0  0
    6.5080   -3.6490   23.2210 C   0  0  0  0  0  0  0  0  0  0  0  0
    6.5380   -2.1330   22.9550 C   0  0  2  0  0  0  0  0  0  0  0  0
    5.7320   -1.8370   21.6730 C   0  0  0  0  0  0  0  0  0  0  0  0
    4.6900   -2.3450   21.3150 O   0  0  0  0  0  0  0  0  0  0  0  0
    6.4070   -0.8800   20.9550 N   0  0  0  0  0  0  0  0  0  0  0  0
    5.8210   -0.2210   19.8530 C   0  0  0  0  0  0  0  0  0  0  0  0
    6.3050   -0.4540   18.5920 C   0  0  0  0  0  0  0  0  0  0  0  0
    5.8290    0.1240   17.4620 N   0  0  0  0  0  0  0  0  0  0  0  0
    4.8380    0.9730   17.6060 C   0  0  0  0  0  0  0  0  0  0  0  0
    4.2610    1.3270   18.8600 C   0  0  0  0  0  0  0  0  0  0  0  0
    3.2170    2.2850   18.9460 C   0  0  0  0  0  0  0  0  0  0  0  0
    2.7050    2.6420   20.1610 C   0  0  0  0  0  0  0  0  0  0  0  0
    3.2120    2.0590   21.3470 C   0  0  0  0  0  0  0  0  0  0  0  0
    4.2160    1.1230   21.2970 C   0  0  0  0  0  0  0  0  0  0  0  0
    4.7610    0.7250   20.0360 C   0  0  0  0  0  0  0  0  0  0  0  0
    4.6030    0.6970   22.2250 H   0  0  0  0  0  0  0  0  0  0  0  0
    2.7980    2.3650   22.3040 H   0  0  0  0  0  0  0  0  0  0  0  0
    1.9110    3.3820   20.2250 H   0  0  0  0  0  0  0  0  0  0  0  0
    2.8530    2.7320   18.0250 H   0  0  0  0  0  0  0  0  0  0  0  0
    4.4420    1.4380   16.7030 H   0  0  0  0  0  0  0  0  0  0  0  0
    7.1200   -1.1640   18.4550 H   0  0  0  0  0  0  0  0  0  0  0  0
    7.7390   -0.5860   21.4290 C   0  0  0  0  0  0  0  0  0  0  0  0
    7.9520   -1.5650   22.6100 C   0  0  2  0  0  0  0  0  0  0  0  0
    9.0370   -2.5900   22.2280 C   0  0  0  0  0  0  0  0  0  0  0  0
   10.2640   -1.9470   21.9410 O   0  0  0  0  0  0  0  0  0  0  0  0
   11.0550   -1.5390   23.0480 C   0  0  0  0  0  0  0  0  0  0  0  0
   11.8670   -2.7010   23.5820 C   0  0  0  0  0  0  0  0  0  0  0  0
   12.5610   -2.7710   24.9200 C   0  0  0  0  0  0  0  0  0  0  0  0
   11.3190   -3.5750   24.6770 C   0  0  0  0  0  0  0  0  0  0  0  0
   10.4160   -3.2100   25.1580 H   0  0  0  0  0  0  0  0  0  0  0  0
   11.3790   -4.6580   24.6010 H   0  0  0  0  0  0  0  0  0  0  0  0
   13.5170   -3.2910   24.9550 H   0  0  0  0  0  0  0  0  0  0  0  0
   12.5040   -1.9530   25.6280 H   0  0  0  0  0  0  0  0  0  0  0  0
   12.3950   -3.1830   22.7690 H   0  0  0  0  0  0  0  0  0  0  0  0
   11.6950   -0.7430   22.6390 H   0  0  0  0  0  0  0  0  0  0  0  0
   10.4280   -1.1020   23.8410 H   0  0  0  0  0  0  0  0  0  0  0  0
    9.1690   -3.3420   23.0150 H   0  0  0  0  0  0  0  0  0  0  0  0
    8.7540   -3.1150   21.3050 H   0  0  0  0  0  0  0  0  0  0  0  0
    8.3380   -1.0370   23.4910 H   0  0  0  0  0  0  0  0  0  0  0  0
    7.8270    0.4660   21.7280 H   0  0  0  0  0  0  0  0  0  0  0  0
    8.4700   -0.7480   20.6290 H   0  0  0  0  0  0  0  0  0  0  0  0
    5.9010   -1.4320   24.1640 C   0  0  0  0  0  0  0  0  0  0  0  0
    6.1770   -0.0860   24.4480 C   0  0  0  0  0  0  0  0  0  0  0  0
    5.6210    0.5240   25.5620 C   0  0  0  0  0  0  0  0  0  0  0  0
    6.0180    2.1830   25.9150 Cl  0  0  0  0  0  0  0  0  0  0  0  0
    4.7610   -0.1600   26.4170 C   0  0  0  0  0  0  0  0  0  0  0  0
    4.4490   -1.4730   26.1220 C   0  0  0  0  0  0  0  0  0  0  0  0
    5.0010   -2.1010   25.0070 C   0  0  0  0  0  0  0  0  0  0  0  0
    4.5730   -3.5050   24.7130 C   0  0  0  0  0  0  0  0  0  0  0  0
    3.7250   -4.1060   25.3700 O   0  0  0  0  0  0  0  0  0  0  0  0
    3.7680   -2.0430   26.7440 H   0  0  0  0  0  0  0  0  0  0  0  0
    4.3430    0.3390   27.2850 H   0  0  0  0  0  0  0  0  0  0  0  0
    6.8310    0.5110   23.8200 H   0  0  0  0  0  0  0  0  0  0  0  0
    7.2360   -3.8980   24.0080 H   0  0  0  0  0  0  0  0  0  0  0  0
    6.7670   -4.2110   22.3230 H   0  0  0  0  0  0  0  0  0  0  0  0
    3.5300   -5.2400   23.2500 H   0  0  0  0  0  0  0  0  0  0  0  0
    4.7870   -5.2600   21.9840 H   0  0  0  0  0  0  0  0  0  0  0  0
    4.0410   -6.2830   25.3160 H   0  0  0  0  0  0  0  0  0  0  0  0
    6.1510   -7.9200   25.9580 H   0  0  0  0  0  0  0  0  0  0  0  0
    5.3100   -8.8880   24.7500 H   0  0  0  0  0  0  0  0  0  0  0  0
    4.4610   -8.4320   26.2510 H   0  0  0  0  0  0  0  0  0  0  0  0
  1  2  1  0  0  0  0
  1 65  1  0  0  0  0
  1 66  1  0  0  0  0
  1 67  1  0  0  0  0
  2  3  1  0  0  0  0
  2 64  1  0  0  0  0
  3  4  2  0  0  0  0
  3  5  1  0  0  0  0
  5  6  1  0  0  0  0
  5 62  1  0  0  0  0
  5 63  1  0  0  0  0
  6  7  1  0  0  0  0
  6 55  1  0  0  0  0
  7  8  1  0  0  0  0
  7 60  1  0  0  0  0
  7 61  1  0  0  0  0
  8  9  1  6  0  0  0
  8 29  1  0  0  0  0
  8 48  1  0  0  0  0
  9 10  2  0  0  0  0
  9 11  1  0  0  0  0
 11 12  1  0  0  0  0
 11 28  1  0  0  0  0
 12 13  2  0  0  0  0
 12 21  1  0  0  0  0
 13 14  1  0  0  0  0
 13 27  1  0  0  0  0
 14 15  2  0  0  0  0
 15 16  1  0  0  0  0
 15 26  1  0  0  0  0
 16 17  2  0  0  0  0
 16 21  1  0  0  0  0
 17 18  1  0  0  0  0
 17 25  1  0  0  0  0
 18 19  2  0  0  0  0
 18 24  1  0  0  0  0
 19 20  1  0  0  0  0
 19 23  1  0  0  0  0
 20 21  2  0  0  0  0
 20 22  1  0  0  0  0
 28 29  1  0  0  0  0
 28 46  1  0  0  0  0
 28 47  1  0  0  0  0
 29 30  1  0  0  0  0
 29 45  1  1  0  0  0
 30 31  1  0  0  0  0
 30 43  1  0  0  0  0
 30 44  1  0  0  0  0
 31 32  1  0  0  0  0
 32 33  1  0  0  0  0
 32 41  1  0  0  0  0
 32 42  1  0  0  0  0
 33 34  1  0  0  0  0
 33 35  1  0  0  0  0
 33 40  1  0  0  0  0
 34 35  1  0  0  0  0
 34 38  1  0  0  0  0
 34 39  1  0  0  0  0
 35 36  1  0  0  0  0
 35 37  1  0  0  0  0
 48 49  2  0  0  0  0
 48 54  1  0  0  0  0
 49 50  1  0  0  0  0
 49 59  1  0  0  0  0
 50 51  1  0  0  0  0
 50 52  2  0  0  0  0
 52 53  1  0  0  0  0
 52 58  1  0  0  0  0
 53 54  2  0  0  0  0
 53 57  1  0  0  0  0
 54 55  1  0  0  0  0
 55 56  2  0  0  0  0
M  END
>  <MODEL>
       1

$$$$
best_conformers_13.pdb
 OpenBabel02042510453D

 67 72  0  0  1  0  0  0  0  0999 V2000
    5.0280   -8.2270   25.4810 C   0  0  0  0  0  0  0  0  0  0  0  0
    4.5010   -7.0500   24.8200 N   0  0  0  0  0  0  0  0  0  0  0  0
    5.1780   -6.5450   23.7620 C   0  0  0  0  0  0  0  0  0  0  0  0
    6.2000   -7.0540   23.3250 O   0  0  0  0  0  0  0  0  0  0  0  0
    4.5780   -5.2770   23.1390 C   0  0  0  0  0  0  0  0  0  0  0  0
    5.1550   -4.0600   23.6710 N   0  0  0  0  0  0  0  0  0  0  0  0
    6.4750   -3.6500   23.2260 C   0  0  0  0  0  0  0  0  0  0  0  0
    6.5500   -2.1230   22.9820 C   0  0  2  0  0  0  0  0  0  0  0  0
    5.6870   -1.7430   21.7570 C   0  0  0  0  0  0  0  0  0  0  0  0
    4.5590   -2.1240   21.5230 O   0  0  0  0  0  0  0  0  0  0  0  0
    6.3970   -0.8680   20.9650 N   0  0  0  0  0  0  0  0  0  0  0  0
    5.8020   -0.2070   19.8560 C   0  0  0  0  0  0  0  0  0  0  0  0
    6.2540   -0.4590   18.5860 C   0  0  0  0  0  0  0  0  0  0  0  0
    5.7800    0.1300   17.4600 N   0  0  0  0  0  0  0  0  0  0  0  0
    4.8060    1.0000   17.6070 C   0  0  0  0  0  0  0  0  0  0  0  0
    4.2380    1.3630   18.8620 C   0  0  0  0  0  0  0  0  0  0  0  0
    3.1910    2.3220   18.9570 C   0  0  0  0  0  0  0  0  0  0  0  0
    2.6780    2.6700   20.1750 C   0  0  0  0  0  0  0  0  0  0  0  0
    3.1990    2.0850   21.3540 C   0  0  0  0  0  0  0  0  0  0  0  0
    4.2120    1.1610   21.2920 C   0  0  0  0  0  0  0  0  0  0  0  0
    4.7500    0.7550   20.0330 C   0  0  0  0  0  0  0  0  0  0  0  0
    4.6020    0.7270   22.2120 H   0  0  0  0  0  0  0  0  0  0  0  0
    2.7840    2.3700   22.3160 H   0  0  0  0  0  0  0  0  0  0  0  0
    1.8770    3.4010   20.2480 H   0  0  0  0  0  0  0  0  0  0  0  0
    2.8170    2.7760   18.0400 H   0  0  0  0  0  0  0  0  0  0  0  0
    4.4150    1.4610   16.7000 H   0  0  0  0  0  0  0  0  0  0  0  0
    7.0470   -1.1890   18.4290 H   0  0  0  0  0  0  0  0  0  0  0  0
    7.7560   -0.6190   21.4100 C   0  0  0  0  0  0  0  0  0  0  0  0
    7.9740   -1.6020   22.5910 C   0  0  2  0  0  0  0  0  0  0  0  0
    9.0090   -2.6790   22.1970 C   0  0  0  0  0  0  0  0  0  0  0  0
   10.2530   -2.0910   21.8680 O   0  0  0  0  0  0  0  0  0  0  0  0
   11.1780   -2.0570   22.9400 C   0  0  0  0  0  0  0  0  0  0  0  0
   12.3210   -1.1230   22.6330 C   0  0  0  0  0  0  0  0  0  0  0  0
   12.0540    0.1910   21.9520 C   0  0  0  0  0  0  0  0  0  0  0  0
   12.7780   -0.9240   21.2270 C   0  0  0  0  0  0  0  0  0  0  0  0
   12.2460   -1.4680   20.4470 H   0  0  0  0  0  0  0  0  0  0  0  0
   13.8500   -0.8320   21.0780 H   0  0  0  0  0  0  0  0  0  0  0  0
   12.6050    1.0800   22.2590 H   0  0  0  0  0  0  0  0  0  0  0  0
   11.0160    0.3790   21.6740 H   0  0  0  0  0  0  0  0  0  0  0  0
   13.0870   -1.1620   23.4060 H   0  0  0  0  0  0  0  0  0  0  0  0
   10.6800   -1.7220   23.8650 H   0  0  0  0  0  0  0  0  0  0  0  0
   11.5690   -3.0700   23.1370 H   0  0  0  0  0  0  0  0  0  0  0  0
    8.6780   -3.2180   21.3020 H   0  0  0  0  0  0  0  0  0  0  0  0
    9.1520   -3.4110   23.0060 H   0  0  0  0  0  0  0  0  0  0  0  0
    8.4180   -1.0870   23.4510 H   0  0  0  0  0  0  0  0  0  0  0  0
    8.4620   -0.8030   20.5930 H   0  0  0  0  0  0  0  0  0  0  0  0
    7.8890    0.4310   21.7110 H   0  0  0  0  0  0  0  0  0  0  0  0
    5.9660   -1.4340   24.2190 C   0  0  0  0  0  0  0  0  0  0  0  0
    6.2590   -0.0880   24.4830 C   0  0  0  0  0  0  0  0  0  0  0  0
    5.6940    0.5460   25.5760 C   0  0  0  0  0  0  0  0  0  0  0  0
    6.0700    2.2180   25.8920 Cl  0  0  0  0  0  0  0  0  0  0  0  0
    4.8190   -0.1190   26.4310 C   0  0  0  0  0  0  0  0  0  0  0  0
    4.4930   -1.4330   26.1540 C   0  0  0  0  0  0  0  0  0  0  0  0
    5.0400   -2.0860   25.0500 C   0  0  0  0  0  0  0  0  0  0  0  0
    4.5550   -3.4710   24.7400 C   0  0  0  0  0  0  0  0  0  0  0  0
    3.6590   -4.0380   25.3700 O   0  0  0  0  0  0  0  0  0  0  0  0
    3.7890   -1.9850   26.7670 H   0  0  0  0  0  0  0  0  0  0  0  0
    4.3940    0.4030   27.2790 H   0  0  0  0  0  0  0  0  0  0  0  0
    6.9080    0.5000   23.8400 H   0  0  0  0  0  0  0  0  0  0  0  0
    6.6860   -4.2000   22.3070 H   0  0  0  0  0  0  0  0  0  0  0  0
    7.2200   -3.9260   23.9880 H   0  0  0  0  0  0  0  0  0  0  0  0
    3.4960   -5.2260   23.2880 H   0  0  0  0  0  0  0  0  0  0  0  0
    4.7930   -5.3100   22.0670 H   0  0  0  0  0  0  0  0  0  0  0  0
    3.6660   -6.5820   25.1450 H   0  0  0  0  0  0  0  0  0  0  0  0
    6.0320   -8.0380   25.8810 H   0  0  0  0  0  0  0  0  0  0  0  0
    4.3580   -8.5150   26.2940 H   0  0  0  0  0  0  0  0  0  0  0  0
    5.1100   -9.0330   24.7520 H   0  0  0  0  0  0  0  0  0  0  0  0
  1  2  1  0  0  0  0
  1 65  1  0  0  0  0
  1 66  1  0  0  0  0
  1 67  1  0  0  0  0
  2  3  1  0  0  0  0
  2 64  1  0  0  0  0
  3  4  2  0  0  0  0
  3  5  1  0  0  0  0
  5  6  1  0  0  0  0
  5 62  1  0  0  0  0
  5 63  1  0  0  0  0
  6  7  1  0  0  0  0
  6 55  1  0  0  0  0
  7  8  1  0  0  0  0
  7 60  1  0  0  0  0
  7 61  1  0  0  0  0
  8  9  1  6  0  0  0
  8 29  1  0  0  0  0
  8 48  1  0  0  0  0
  9 10  2  0  0  0  0
  9 11  1  0  0  0  0
 11 12  1  0  0  0  0
 11 28  1  0  0  0  0
 12 13  2  0  0  0  0
 12 21  1  0  0  0  0
 13 14  1  0  0  0  0
 13 27  1  0  0  0  0
 14 15  2  0  0  0  0
 15 16  1  0  0  0  0
 15 26  1  0  0  0  0
 16 17  2  0  0  0  0
 16 21  1  0  0  0  0
 17 18  1  0  0  0  0
 17 25  1  0  0  0  0
 18 19  2  0  0  0  0
 18 24  1  0  0  0  0
 19 20  1  0  0  0  0
 19 23  1  0  0  0  0
 20 21  2  0  0  0  0
 20 22  1  0  0  0  0
 28 29  1  0  0  0  0
 28 46  1  0  0  0  0
 28 47  1  0  0  0  0
 29 30  1  0  0  0  0
 29 45  1  1  0  0  0
 30 31  1  0  0  0  0
 30 43  1  0  0  0  0
 30 44  1  0  0  0  0
 31 32  1  0  0  0  0
 32 33  1  0  0  0  0
 32 41  1  0  0  0  0
 32 42  1  0  0  0  0
 33 34  1  0  0  0  0
 33 35  1  0  0  0  0
 33 40  1  0  0  0  0
 34 35  1  0  0  0  0
 34 38  1  0  0  0  0
 34 39  1  0  0  0  0
 35 36  1  0  0  0  0
 35 37  1  0  0  0  0
 48 49  2  0  0  0  0
 48 54  1  0  0  0  0
 49 50  1  0  0  0  0
 49 59  1  0  0  0  0
 50 51  1  0  0  0  0
 50 52  2  0  0  0  0
 52 53  1  0  0  0  0
 52 58  1  0  0  0  0
 53 54  2  0  0  0  0
 53 57  1  0  0  0  0
 54 55  1  0  0  0  0
 55 56  2  0  0  0  0
M  END
>  <MODEL>
       2

$$$$
best_conformers_13.pdb
 OpenBabel02042510453D

 67 72  0  0  1  0  0  0  0  0999 V2000
    6.7870   -8.7120   24.0800 C   0  0  0  0  0  0  0  0  0  0  0  0
    5.9230   -7.6910   23.5330 N   0  0  0  0  0  0  0  0  0  0  0  0
    6.4450   -6.8920   22.5760 C   0  0  0  0  0  0  0  0  0  0  0  0
    7.5970   -7.0000   22.1860 O   0  0  0  0  0  0  0  0  0  0  0  0
    5.5170   -5.7890   22.0870 C   0  0  0  0  0  0  0  0  0  0  0  0
    5.6660   -4.6350   22.9430 N   0  0  0  0  0  0  0  0  0  0  0  0
    6.8700   -3.8290   22.8420 C   0  0  0  0  0  0  0  0  0  0  0  0
    6.5170   -2.3360   22.7800 C   0  0  2  0  0  0  0  0  0  0  0  0
    5.8180   -2.0170   21.4430 C   0  0  0  0  0  0  0  0  0  0  0  0
    4.9240   -2.6330   20.8950 O   0  0  0  0  0  0  0  0  0  0  0  0
    6.3760   -0.8670   20.9430 N   0  0  0  0  0  0  0  0  0  0  0  0
    5.7930   -0.2060   19.8430 C   0  0  0  0  0  0  0  0  0  0  0  0
    6.2620   -0.4700   18.5870 C   0  0  0  0  0  0  0  0  0  0  0  0
    5.8040    0.1220   17.4580 N   0  0  0  0  0  0  0  0  0  0  0  0
    4.8270    0.9880   17.6050 C   0  0  0  0  0  0  0  0  0  0  0  0
    4.2460    1.3460   18.8590 C   0  0  0  0  0  0  0  0  0  0  0  0
    3.2010    2.2990   18.9550 C   0  0  0  0  0  0  0  0  0  0  0  0
    2.6730    2.6230   20.1740 C   0  0  0  0  0  0  0  0  0  0  0  0
    3.1610    2.0170   21.3550 C   0  0  0  0  0  0  0  0  0  0  0  0
    4.1730    1.0900   21.2960 C   0  0  0  0  0  0  0  0  0  0  0  0
    4.7400    0.7370   20.0320 C   0  0  0  0  0  0  0  0  0  0  0  0
    4.5340    0.6270   22.2150 H   0  0  0  0  0  0  0  0  0  0  0  0
    2.7370    2.3010   22.3150 H   0  0  0  0  0  0  0  0  0  0  0  0
    1.8790    3.3610   20.2420 H   0  0  0  0  0  0  0  0  0  0  0  0
    2.8450    2.7650   18.0390 H   0  0  0  0  0  0  0  0  0  0  0  0
    4.4470    1.4650   16.7010 H   0  0  0  0  0  0  0  0  0  0  0  0
    7.0520   -1.2090   18.4680 H   0  0  0  0  0  0  0  0  0  0  0  0
    7.4420   -0.2950   21.7290 C   0  0  0  0  0  0  0  0  0  0  0  0
    7.7630   -1.3840   22.7640 C   0  0  2  0  0  0  0  0  0  0  0  0
    9.1260   -2.0180   22.4340 C   0  0  0  0  0  0  0  0  0  0  0  0
    9.6330   -2.7830   23.5100 O   0  0  0  0  0  0  0  0  0  0  0  0
   10.3070   -2.0240   24.5110 C   0  0  0  0  0  0  0  0  0  0  0  0
   11.7740   -1.8970   24.1650 C   0  0  0  0  0  0  0  0  0  0  0  0
   12.7960   -1.9680   25.2640 C   0  0  0  0  0  0  0  0  0  0  0  0
   12.5210   -3.1670   24.4010 C   0  0  0  0  0  0  0  0  0  0  0  0
   11.9030   -3.9580   24.8200 H   0  0  0  0  0  0  0  0  0  0  0  0
   13.2660   -3.4740   23.6770 H   0  0  0  0  0  0  0  0  0  0  0  0
   13.7600   -1.4840   25.1040 H   0  0  0  0  0  0  0  0  0  0  0  0
   12.4310   -1.9320   26.2880 H   0  0  0  0  0  0  0  0  0  0  0  0
   12.0540   -1.2800   23.3120 H   0  0  0  0  0  0  0  0  0  0  0  0
   10.2160   -2.5970   25.4480 H   0  0  0  0  0  0  0  0  0  0  0  0
    9.8200   -1.0510   24.6750 H   0  0  0  0  0  0  0  0  0  0  0  0
    9.8410   -1.2280   22.1430 H   0  0  0  0  0  0  0  0  0  0  0  0
    9.0450   -2.6970   21.5790 H   0  0  0  0  0  0  0  0  0  0  0  0
    7.8720   -0.9760   23.7740 H   0  0  0  0  0  0  0  0  0  0  0  0
    8.2930   -0.0660   21.0800 H   0  0  0  0  0  0  0  0  0  0  0  0
    7.1400    0.6540   22.1940 H   0  0  0  0  0  0  0  0  0  0  0  0
    5.5780   -2.0580   23.9560 C   0  0  0  0  0  0  0  0  0  0  0  0
    5.4580   -0.7730   24.4940 C   0  0  0  0  0  0  0  0  0  0  0  0
    4.5710   -0.5350   25.5310 C   0  0  0  0  0  0  0  0  0  0  0  0
    4.4370    1.0760   26.1710 Cl  0  0  0  0  0  0  0  0  0  0  0  0
    3.7820   -1.5410   26.0810 C   0  0  0  0  0  0  0  0  0  0  0  0
    3.8850   -2.8060   25.5450 C   0  0  0  0  0  0  0  0  0  0  0  0
    4.7610   -3.0590   24.4970 C   0  0  0  0  0  0  0  0  0  0  0  0
    4.7620   -4.4390   23.9370 C   0  0  0  0  0  0  0  0  0  0  0  0
    3.9950   -5.3260   24.3050 O   0  0  0  0  0  0  0  0  0  0  0  0
    3.2870   -3.6350   25.9010 H   0  0  0  0  0  0  0  0  0  0  0  0
    3.1000   -1.3250   26.8960 H   0  0  0  0  0  0  0  0  0  0  0  0
    6.0580    0.0510   24.1240 H   0  0  0  0  0  0  0  0  0  0  0  0
    7.3990   -4.1410   21.9460 H   0  0  0  0  0  0  0  0  0  0  0  0
    7.5410   -3.9960   23.6920 H   0  0  0  0  0  0  0  0  0  0  0  0
    4.4670   -6.0980   22.1180 H   0  0  0  0  0  0  0  0  0  0  0  0
    5.7950   -5.4940   21.0710 H   0  0  0  0  0  0  0  0  0  0  0  0
    5.0230   -7.4710   23.9420 H   0  0  0  0  0  0  0  0  0  0  0  0
    6.3340   -9.1190   24.9840 H   0  0  0  0  0  0  0  0  0  0  0  0
    7.7580   -8.2680   24.3260 H   0  0  0  0  0  0  0  0  0  0  0  0
    6.9540   -9.5140   23.3490 H   0  0  0  0  0  0  0  0  0  0  0  0
  1  2  1  0  0  0  0
  1 65  1  0  0  0  0
  1 66  1  0  0  0  0
  1 67  1  0  0  0  0
  2  3  1  0  0  0  0
  2 64  1  0  0  0  0
  3  4  2  0  0  0  0
  3  5  1  0  0  0  0
  5  6  1  0  0  0  0
  5 62  1  0  0  0  0
  5 63  1  0  0  0  0
  6  7  1  0  0  0  0
  6 55  1  0  0  0  0
  7  8  1  0  0  0  0
  7 60  1  0  0  0  0
  7 61  1  0  0  0  0
  8  9  1  6  0  0  0
  8 29  1  0  0  0  0
  8 48  1  0  0  0  0
  9 10  2  0  0  0  0
  9 11  1  0  0  0  0
 11 12  1  0  0  0  0
 11 28  1  0  0  0  0
 12 13  2  0  0  0  0
 12 21  1  0  0  0  0
 13 14  1  0  0  0  0
 13 27  1  0  0  0  0
 14 15  2  0  0  0  0
 15 16  1  0  0  0  0
 15 26  1  0  0  0  0
 16 17  2  0  0  0  0
 16 21  1  0  0  0  0
 17 18  1  0  0  0  0
 17 25  1  0  0  0  0
 18 19  2  0  0  0  0
 18 24  1  0  0  0  0
 19 20  1  0  0  0  0
 19 23  1  0  0  0  0
 20 21  2  0  0  0  0
 20 22  1  0  0  0  0
 28 29  1  0  0  0  0
 28 46  1  0  0  0  0
 28 47  1  0  0  0  0
 29 30  1  0  0  0  0
 29 45  1  1  0  0  0
 30 31  1  0  0  0  0
 30 43  1  0  0  0  0
 30 44  1  0  0  0  0
 31 32  1  0  0  0  0
 32 33  1  0  0  0  0
 32 41  1  0  0  0  0
 32 42  1  0  0  0  0
 33 34  1  0  0  0  0
 33 35  1  0  0  0  0
 33 40  1  0  0  0  0
 34 35  1  0  0  0  0
 34 38  1  0  0  0  0
 34 39  1  0  0  0  0
 35 36  1  0  0  0  0
 35 37  1  0  0  0  0
 48 49  2  0  0  0  0
 48 54  1  0  0  0  0
 49 50  1  0  0  0  0
 49 59  1  0  0  0  0
 50 51  1  0  0  0  0
 50 52  2  0  0  0  0
 52 53  1  0  0  0  0
 52 58  1  0  0  0  0
 53 54  2  0  0  0  0
 53 57  1  0  0  0  0
 54 55  1  0  0  0  0
 55 56  2  0  0  0  0
M  END
>  <MODEL>
       3

$$$$
best_conformers_13.pdb
 OpenBabel02042510453D

 67 72  0  0  1  0  0  0  0  0999 V2000
    5.3930   -5.0780   27.6580 C   0  0  0  0  0  0  0  0  0  0  0  0
    5.9430   -3.7550   27.4500 N   0  0  0  0  0  0  0  0  0  0  0  0
    5.4190   -2.9350   26.5060 C   0  0  0  0  0  0  0  0  0  0  0  0
    4.5790   -3.3140   25.6950 O   0  0  0  0  0  0  0  0  0  0  0  0
    5.9100   -1.4810   26.5360 C   0  0  0  0  0  0  0  0  0  0  0  0
    6.9220   -1.2360   25.5170 N   0  0  0  0  0  0  0  0  0  0  0  0
    6.5330   -0.6280   24.2500 C   0  0  0  0  0  0  0  0  0  0  0  0
    7.4880   -0.9480   23.0680 C   0  0  2  0  0  0  0  0  0  0  0  0
    7.1190    0.0020   21.9220 C   0  0  0  0  0  0  0  0  0  0  0  0
    7.3340    1.1940   21.8510 O   0  0  0  0  0  0  0  0  0  0  0  0
    6.4430   -0.7210   20.9610 N   0  0  0  0  0  0  0  0  0  0  0  0
    5.8390   -0.1140   19.8460 C   0  0  0  0  0  0  0  0  0  0  0  0
    6.2720   -0.4410   18.5880 C   0  0  0  0  0  0  0  0  0  0  0  0
    5.7930    0.1140   17.4500 N   0  0  0  0  0  0  0  0  0  0  0  0
    4.8220    0.9900   17.5840 C   0  0  0  0  0  0  0  0  0  0  0  0
    4.2490    1.3720   18.8320 C   0  0  0  0  0  0  0  0  0  0  0  0
    3.1890    2.3130   18.9190 C   0  0  0  0  0  0  0  0  0  0  0  0
    2.6290    2.6240   20.1280 C   0  0  0  0  0  0  0  0  0  0  0  0
    3.0980    2.0080   21.3130 C   0  0  0  0  0  0  0  0  0  0  0  0
    4.1300    1.1080   21.2590 C   0  0  0  0  0  0  0  0  0  0  0  0
    4.7490    0.7900   20.0140 C   0  0  0  0  0  0  0  0  0  0  0  0
    4.4880    0.6430   22.1750 H   0  0  0  0  0  0  0  0  0  0  0  0
    2.6440    2.2590   22.2680 H   0  0  0  0  0  0  0  0  0  0  0  0
    1.8220    3.3490   20.1900 H   0  0  0  0  0  0  0  0  0  0  0  0
    2.8390    2.7780   18.0010 H   0  0  0  0  0  0  0  0  0  0  0  0
    4.4360    1.4460   16.6720 H   0  0  0  0  0  0  0  0  0  0  0  0
    7.0730   -1.1710   18.4720 H   0  0  0  0  0  0  0  0  0  0  0  0
    6.2170   -2.1090   21.2990 C   0  0  0  0  0  0  0  0  0  0  0  0
    7.2520   -2.3320   22.3980 C   0  0  2  0  0  0  0  0  0  0  0  0
    6.8750   -3.4080   23.3740 C   0  0  0  0  0  0  0  0  0  0  0  0
    6.8850   -4.6340   22.7060 O   0  0  0  0  0  0  0  0  0  0  0  0
    6.5610   -5.6340   23.6210 C   0  0  0  0  0  0  0  0  0  0  0  0
    6.5180   -6.9150   22.8860 C   0  0  0  0  0  0  0  0  0  0  0  0
    5.2030   -7.3010   22.3150 C   0  0  0  0  0  0  0  0  0  0  0  0
    5.7220   -7.9620   23.5700 C   0  0  0  0  0  0  0  0  0  0  0  0
    5.2590   -7.6110   24.4890 H   0  0  0  0  0  0  0  0  0  0  0  0
    6.0990   -8.9790   23.6000 H   0  0  0  0  0  0  0  0  0  0  0  0
    5.2280   -7.8090   21.3580 H   0  0  0  0  0  0  0  0  0  0  0  0
    4.3820   -6.6020   22.4340 H   0  0  0  0  0  0  0  0  0  0  0  0
    7.3990   -7.1630   22.3040 H   0  0  0  0  0  0  0  0  0  0  0  0
    7.2980   -5.6570   24.4420 H   0  0  0  0  0  0  0  0  0  0  0  0
    5.5620   -5.4510   24.0670 H   0  0  0  0  0  0  0  0  0  0  0  0
    7.5910   -3.4320   24.2100 H   0  0  0  0  0  0  0  0  0  0  0  0
    5.8750   -3.2080   23.7860 H   0  0  0  0  0  0  0  0  0  0  0  0
    8.1870   -2.6170   21.9060 H   0  0  0  0  0  0  0  0  0  0  0  0
    5.1920   -2.2780   21.6580 H   0  0  0  0  0  0  0  0  0  0  0  0
    6.3550   -2.7470   20.4240 H   0  0  0  0  0  0  0  0  0  0  0  0
    8.9190   -0.8360   23.5450 C   0  0  0  0  0  0  0  0  0  0  0  0
    9.9460   -0.5840   22.6300 C   0  0  0  0  0  0  0  0  0  0  0  0
   11.2610   -0.5580   23.0620 C   0  0  0  0  0  0  0  0  0  0  0  0
   12.5340   -0.2250   21.9250 Cl  0  0  0  0  0  0  0  0  0  0  0  0
   11.5880   -0.7990   24.3960 C   0  0  0  0  0  0  0  0  0  0  0  0
   10.5800   -1.1210   25.2870 C   0  0  0  0  0  0  0  0  0  0  0  0
    9.2530   -1.1560   24.8660 C   0  0  0  0  0  0  0  0  0  0  0  0
    8.1970   -1.5920   25.8320 C   0  0  0  0  0  0  0  0  0  0  0  0
    8.4440   -2.2440   26.8450 O   0  0  0  0  0  0  0  0  0  0  0  0
   10.8000   -1.3590   26.3240 H   0  0  0  0  0  0  0  0  0  0  0  0
   12.6210   -0.7540   24.7150 H   0  0  0  0  0  0  0  0  0  0  0  0
    9.7240   -0.4070   21.5840 H   0  0  0  0  0  0  0  0  0  0  0  0
    6.4790    0.4620   24.3480 H   0  0  0  0  0  0  0  0  0  0  0  0
    5.5190   -0.9790   24.0140 H   0  0  0  0  0  0  0  0  0  0  0  0
    5.0560   -0.8220   26.3480 H   0  0  0  0  0  0  0  0  0  0  0  0
    6.3390   -1.2410   27.5160 H   0  0  0  0  0  0  0  0  0  0  0  0
    6.8470   -3.5190   27.8380 H   0  0  0  0  0  0  0  0  0  0  0  0
    5.4470   -5.7070   26.7560 H   0  0  0  0  0  0  0  0  0  0  0  0
    4.3390   -5.0070   27.9350 H   0  0  0  0  0  0  0  0  0  0  0  0
    5.9210   -5.5570   28.4850 H   0  0  0  0  0  0  0  0  0  0  0  0
  1  2  1  0  0  0  0
  1 65  1  0  0  0  0
  1 66  1  0  0  0  0
  1 67  1  0  0  0  0
  2  3  1  0  0  0  0
  2 64  1  0  0  0  0
  3  4  2  0  0  0  0
  3  5  1  0  0  0  0
  5  6  1  0  0  0  0
  5 62  1  0  0  0  0
  5 63  1  0  0  0  0
  6  7  1  0  0  0  0
  6 55  1  0  0  0  0
  7  8  1  0  0  0  0
  7 60  1  0  0  0  0
  7 61  1  0  0  0  0
  8  9  1  6  0  0  0
  8 29  1  0  0  0  0
  8 48  1  0  0  0  0
  9 10  2  0  0  0  0
  9 11  1  0  0  0  0
 11 12  1  0  0  0  0
 11 28  1  0  0  0  0
 12 13  2  0  0  0  0
 12 21  1  0  0  0  0
 13 14  1  0  0  0  0
 13 27  1  0  0  0  0
 14 15  2  0  0  0  0
 15 16  1  0  0  0  0
 15 26  1  0  0  0  0
 16 17  2  0  0  0  0
 16 21  1  0  0  0  0
 17 18  1  0  0  0  0
 17 25  1  0  0  0  0
 18 19  2  0  0  0  0
 18 24  1  0  0  0  0
 19 20  1  0  0  0  0
 19 23  1  0  0  0  0
 20 21  2  0  0  0  0
 20 22  1  0  0  0  0
 28 29  1  0  0  0  0
 28 46  1  0  0  0  0
 28 47  1  0  0  0  0
 29 30  1  0  0  0  0
 29 45  1  6  0  0  0
 30 31  1  0  0  0  0
 30 43  1  0  0  0  0
 30 44  1  0  0  0  0
 31 32  1  0  0  0  0
 32 33  1  0  0  0  0
 32 41  1  0  0  0  0
 32 42  1  0  0  0  0
 33 34  1  0  0  0  0
 33 35  1  0  0  0  0
 33 40  1  0  0  0  0
 34 35  1  0  0  0  0
 34 38  1  0  0  0  0
 34 39  1  0  0  0  0
 35 36  1  0  0  0  0
 35 37  1  0  0  0  0
 48 49  2  0  0  0  0
 48 54  1  0  0  0  0
 49 50  1  0  0  0  0
 49 59  1  0  0  0  0
 50 51  1  0  0  0  0
 50 52  2  0  0  0  0
 52 53  1  0  0  0  0
 52 58  1  0  0  0  0
 53 54  2  0  0  0  0
 53 57  1  0  0  0  0
 54 55  1  0  0  0  0
 55 56  2  0  0  0  0
M  END
>  <MODEL>
       4

$$$$
best_conformers_13.pdb
 OpenBabel02042510453D

 67 72  0  0  1  0  0  0  0  0999 V2000
    6.1980    0.3660   29.7040 C   0  0  0  0  0  0  0  0  0  0  0  0
    6.2880   -0.7340   28.7640 N   0  0  0  0  0  0  0  0  0  0  0  0
    5.7910   -0.5800   27.5090 C   0  0  0  0  0  0  0  0  0  0  0  0
    5.1580    0.4040   27.1700 O   0  0  0  0  0  0  0  0  0  0  0  0
    6.0580   -1.7380   26.5420 C   0  0  0  0  0  0  0  0  0  0  0  0
    7.0430   -1.4100   25.5320 N   0  0  0  0  0  0  0  0  0  0  0  0
    6.6060   -0.7450   24.3120 C   0  0  0  0  0  0  0  0  0  0  0  0
    7.5050   -1.0520   23.0920 C   0  0  2  0  0  0  0  0  0  0  0  0
    7.0980   -0.0830   21.9690 C   0  0  0  0  0  0  0  0  0  0  0  0
    7.2830    1.1160   21.9330 O   0  0  0  0  0  0  0  0  0  0  0  0
    6.4430   -0.7850   20.9820 N   0  0  0  0  0  0  0  0  0  0  0  0
    5.8400   -0.1540   19.8700 C   0  0  0  0  0  0  0  0  0  0  0  0
    6.2660   -0.4610   18.6040 C   0  0  0  0  0  0  0  0  0  0  0  0
    5.7870    0.1090   17.4710 N   0  0  0  0  0  0  0  0  0  0  0  0
    4.8190    0.9880   17.6120 C   0  0  0  0  0  0  0  0  0  0  0  0
    4.2540    1.3610   18.8640 C   0  0  0  0  0  0  0  0  0  0  0  0
    3.1940    2.3020   18.9530 C   0  0  0  0  0  0  0  0  0  0  0  0
    2.6390    2.6170   20.1610 C   0  0  0  0  0  0  0  0  0  0  0  0
    3.1140    2.0000   21.3410 C   0  0  0  0  0  0  0  0  0  0  0  0
    4.1410    1.0950   21.2850 C   0  0  0  0  0  0  0  0  0  0  0  0
    4.7580    0.7680   20.0420 C   0  0  0  0  0  0  0  0  0  0  0  0
    4.4940    0.6320   22.2020 H   0  0  0  0  0  0  0  0  0  0  0  0
    2.6670    2.2530   22.2990 H   0  0  0  0  0  0  0  0  0  0  0  0
    1.8350    3.3470   20.2270 H   0  0  0  0  0  0  0  0  0  0  0  0
    2.8380    2.7670   18.0370 H   0  0  0  0  0  0  0  0  0  0  0  0
    4.4260    1.4450   16.7040 H   0  0  0  0  0  0  0  0  0  0  0  0
    7.0600   -1.1970   18.4610 H   0  0  0  0  0  0  0  0  0  0  0  0
    6.2800   -2.1940   21.2680 C   0  0  0  0  0  0  0  0  0  0  0  0
    7.2740   -2.4460   22.4050 C   0  0  2  0  0  0  0  0  0  0  0  0
    6.9040   -3.6270   23.3010 C   0  0  0  0  0  0  0  0  0  0  0  0
    5.5580   -3.5460   23.7430 O   0  0  0  0  0  0  0  0  0  0  0  0
    5.1790   -4.6630   24.5220 C   0  0  0  0  0  0  0  0  0  0  0  0
    3.7130   -4.6110   24.8680 C   0  0  0  0  0  0  0  0  0  0  0  0
    3.0230   -5.9210   25.1210 C   0  0  0  0  0  0  0  0  0  0  0  0
    2.7190   -5.1560   23.8800 C   0  0  0  0  0  0  0  0  0  0  0  0
    3.1170   -5.4700   22.9240 H   0  0  0  0  0  0  0  0  0  0  0  0
    1.7220   -4.7350   23.8190 H   0  0  0  0  0  0  0  0  0  0  0  0
    3.6040   -6.8350   25.0620 H   0  0  0  0  0  0  0  0  0  0  0  0
    2.2480   -5.9430   25.8780 H   0  0  0  0  0  0  0  0  0  0  0  0
    3.4170   -3.7510   25.4700 H   0  0  0  0  0  0  0  0  0  0  0  0
    5.3830   -5.5980   23.9710 H   0  0  0  0  0  0  0  0  0  0  0  0
    5.7840   -4.6870   25.4440 H   0  0  0  0  0  0  0  0  0  0  0  0
    7.0420   -4.5610   22.7310 H   0  0  0  0  0  0  0  0  0  0  0  0
    7.6000   -3.6520   24.1530 H   0  0  0  0  0  0  0  0  0  0  0  0
    8.2470   -2.6980   21.9540 H   0  0  0  0  0  0  0  0  0  0  0  0
    6.4870   -2.7800   20.3710 H   0  0  0  0  0  0  0  0  0  0  0  0
    5.2530   -2.4090   21.5810 H   0  0  0  0  0  0  0  0  0  0  0  0
    8.9480   -0.8700   23.5220 C   0  0  0  0  0  0  0  0  0  0  0  0
    9.9360   -0.5700   22.5750 C   0  0  0  0  0  0  0  0  0  0  0  0
   11.2600   -0.4770   22.9720 C   0  0  0  0  0  0  0  0  0  0  0  0
   12.4980   -0.0950   21.8060 Cl  0  0  0  0  0  0  0  0  0  0  0  0
   11.6410   -0.6860   24.3000 C   0  0  0  0  0  0  0  0  0  0  0  0
   10.6740   -1.0150   25.2310 C   0  0  0  0  0  0  0  0  0  0  0  0
    9.3410   -1.1110   24.8430 C   0  0  0  0  0  0  0  0  0  0  0  0
    8.3550   -1.5460   25.8700 C   0  0  0  0  0  0  0  0  0  0  0  0
    8.7120   -2.0280   26.9400 O   0  0  0  0  0  0  0  0  0  0  0  0
   10.9080   -1.2160   26.2750 H   0  0  0  0  0  0  0  0  0  0  0  0
   12.6860   -0.6130   24.5770 H   0  0  0  0  0  0  0  0  0  0  0  0
    9.6690   -0.4130   21.5350 H   0  0  0  0  0  0  0  0  0  0  0  0
    5.5890   -1.0830   24.1040 H   0  0  0  0  0  0  0  0  0  0  0  0
    6.6000    0.3410   24.4640 H   0  0  0  0  0  0  0  0  0  0  0  0
    6.4310   -2.6080   27.0840 H   0  0  0  0  0  0  0  0  0  0  0  0
    5.1180   -1.9820   26.0340 H   0  0  0  0  0  0  0  0  0  0  0  0
    6.9950   -1.4410   28.9150 H   0  0  0  0  0  0  0  0  0  0  0  0
    6.7050    0.1040   30.6350 H   0  0  0  0  0  0  0  0  0  0  0  0
    6.6500    1.2680   29.2850 H   0  0  0  0  0  0  0  0  0  0  0  0
    5.1570    0.5980   29.9260 H   0  0  0  0  0  0  0  0  0  0  0  0
  1  2  1  0  0  0  0
  1 65  1  0  0  0  0
  1 66  1  0  0  0  0
  1 67  1  0  0  0  0
  2  3  1  0  0  0  0
  2 64  1  0  0  0  0
  3  4  2  0  0  0  0
  3  5  1  0  0  0  0
  5  6  1  0  0  0  0
  5 62  1  0  0  0  0
  5 63  1  0  0  0  0
  6  7  1  0  0  0  0
  6 55  1  0  0  0  0
  7  8  1  0  0  0  0
  7 60  1  0  0  0  0
  7 61  1  0  0  0  0
  8  9  1  6  0  0  0
  8 29  1  0  0  0  0
  8 48  1  0  0  0  0
  9 10  2  0  0  0  0
  9 11  1  0  0  0  0
 11 12  1  0  0  0  0
 11 28  1  0  0  0  0
 12 13  2  0  0  0  0
 12 21  1  0  0  0  0
 13 14  1  0  0  0  0
 13 27  1  0  0  0  0
 14 15  2  0  0  0  0
 15 16  1  0  0  0  0
 15 26  1  0  0  0  0
 16 17  2  0  0  0  0
 16 21  1  0  0  0  0
 17 18  1  0  0  0  0
 17 25  1  0  0  0  0
 18 19  2  0  0  0  0
 18 24  1  0  0  0  0
 19 20  1  0  0  0  0
 19 23  1  0  0  0  0
 20 21  2  0  0  0  0
 20 22  1  0  0  0  0
 28 29  1  0  0  0  0
 28 46  1  0  0  0  0
 28 47  1  0  0  0  0
 29 30  1  0  0  0  0
 29 45  1  6  0  0  0
 30 31  1  0  0  0  0
 30 43  1  0  0  0  0
 30 44  1  0  0  0  0
 31 32  1  0  0  0  0
 32 33  1  0  0  0  0
 32 41  1  0  0  0  0
 32 42  1  0  0  0  0
 33 34  1  0  0  0  0
 33 35  1  0  0  0  0
 33 40  1  0  0  0  0
 34 35  1  0  0  0  0
 34 38  1  0  0  0  0
 34 39  1  0  0  0  0
 35 36  1  0  0  0  0
 35 37  1  0  0  0  0
 48 49  2  0  0  0  0
 48 54  1  0  0  0  0
 49 50  1  0  0  0  0
 49 59  1  0  0  0  0
 50 51  1  0  0  0  0
 50 52  2  0  0  0  0
 52 53  1  0  0  0  0
 52 58  1  0  0  0  0
 53 54  2  0  0  0  0
 53 57  1  0  0  0  0
 54 55  1  0  0  0  0
 55 56  2  0  0  0  0
M  END
>  <MODEL>
       5

$$$$
