best_conformers_84.pdb
 OpenBabel02042510453D

 60 65  0  0  1  0  0  0  0  0999 V2000
    6.5190    1.8550   28.3890 C   0  0  0  0  0  0  0  0  0  0  0  0
    6.5790    0.7420   27.4510 N   0  0  0  0  0  0  0  0  0  0  0  0
    5.8130   -0.3600   27.6320 C   0  0  0  0  0  0  0  0  0  0  0  0
    5.0250   -0.4730   28.5610 O   0  0  0  0  0  0  0  0  0  0  0  0
    5.9350   -1.4930   26.6200 C   0  0  0  0  0  0  0  0  0  0  0  0
    6.9030   -1.3920   25.5550 N   0  0  0  0  0  0  0  0  0  0  0  0
    6.5110   -0.7720   24.2970 C   0  0  0  0  0  0  0  0  0  0  0  0
    7.4660   -1.0770   23.1170 C   0  0  2  0  0  0  0  0  0  0  0  0
    7.1000   -0.0920   21.9840 C   0  0  0  0  0  0  0  0  0  0  0  0
    7.2860    1.1080   21.9660 O   0  0  0  0  0  0  0  0  0  0  0  0
    6.4600   -0.7890   20.9810 N   0  0  0  0  0  0  0  0  0  0  0  0
    5.8520   -0.1510   19.8690 C   0  0  0  0  0  0  0  0  0  0  0  0
    6.2620   -0.4580   18.5950 C   0  0  0  0  0  0  0  0  0  0  0  0
    5.7720    0.1140   17.4670 N   0  0  0  0  0  0  0  0  0  0  0  0
    4.8090    0.9940   17.6110 C   0  0  0  0  0  0  0  0  0  0  0  0
    4.2420    1.3640   18.8640 C   0  0  0  0  0  0  0  0  0  0  0  0
    3.1800    2.3080   18.9550 C   0  0  0  0  0  0  0  0  0  0  0  0
    2.6290    2.6230   20.1680 C   0  0  0  0  0  0  0  0  0  0  0  0
    3.1120    1.9980   21.3420 C   0  0  0  0  0  0  0  0  0  0  0  0
    4.1410    1.0920   21.2760 C   0  0  0  0  0  0  0  0  0  0  0  0
    4.7580    0.7660   20.0340 C   0  0  0  0  0  0  0  0  0  0  0  0
    4.5020    0.6250   22.1860 H   0  0  0  0  0  0  0  0  0  0  0  0
    2.6740    2.2510   22.3030 H   0  0  0  0  0  0  0  0  0  0  0  0
    1.8260    3.3520   20.2370 H   0  0  0  0  0  0  0  0  0  0  0  0
    2.8220    2.7760   18.0400 H   0  0  0  0  0  0  0  0  0  0  0  0
    4.4230    1.4560   16.7020 H   0  0  0  0  0  0  0  0  0  0  0  0
    7.0450   -1.1970   18.4320 H   0  0  0  0  0  0  0  0  0  0  0  0
    6.2870   -2.2030   21.2650 C   0  0  0  0  0  0  0  0  0  0  0  0
    7.2600   -2.4720   22.4230 C   0  0  2  0  0  0  0  0  0  0  0  0
    6.8270   -3.6360   23.3160 C   0  0  0  0  0  0  0  0  0  0  0  0
    5.8130   -3.4860   23.7020 H   0  0  0  0  0  0  0  0  0  0  0  0
    7.4970   -3.7500   24.1750 H   0  0  0  0  0  0  0  0  0  0  0  0
    6.8250   -4.5800   22.7580 H   0  0  0  0  0  0  0  0  0  0  0  0
    8.2440   -2.7090   21.9950 H   0  0  0  0  0  0  0  0  0  0  0  0
    5.2480   -2.4360   21.5460 H   0  0  0  0  0  0  0  0  0  0  0  0
    6.5100   -2.7860   20.3720 H   0  0  0  0  0  0  0  0  0  0  0  0
    8.8950   -0.9060   23.5910 C   0  0  0  0  0  0  0  0  0  0  0  0
    9.9090   -0.6020   22.6750 C   0  0  0  0  0  0  0  0  0  0  0  0
   11.2250   -0.5360   23.0990 C   0  0  0  0  0  0  0  0  0  0  0  0
   12.4750   -0.1250   21.9650 Cl  0  0  0  0  0  0  0  0  0  0  0  0
   11.5770   -0.7970   24.4220 C   0  0  0  0  0  0  0  0  0  0  0  0
   10.5800   -1.1300   25.3200 C   0  0  0  0  0  0  0  0  0  0  0  0
    9.2470   -1.1860   24.9130 C   0  0  0  0  0  0  0  0  0  0  0  0
    8.2200   -1.6140   25.9010 C   0  0  0  0  0  0  0  0  0  0  0  0
    8.5120   -2.1220   26.9680 O   0  0  0  0  0  0  0  0  0  0  0  0
   10.8120   -1.3810   26.3490 H   0  0  0  0  0  0  0  0  0  0  0  0
   12.6200   -0.7480   24.7180 H   0  0  0  0  0  0  0  0  0  0  0  0
    9.6730   -0.3980   21.6370 H   0  0  0  0  0  0  0  0  0  0  0  0
    5.5040   -1.1310   24.0640 H   0  0  0  0  0  0  0  0  0  0  0  0
    6.4760    0.3230   24.3890 H   0  0  0  0  0  0  0  0  0  0  0  0
    4.6210   -2.2000   26.3610 C   0  0  0  0  0  0  0  0  0  0  0  0
    5.6590   -2.8600   27.2080 C   0  0  0  0  0  0  0  0  0  0  0  0
    5.4930   -2.9280   28.2820 H   0  0  0  0  0  0  0  0  0  0  0  0
    6.2240   -3.6830   26.7770 H   0  0  0  0  0  0  0  0  0  0  0  0
    3.7410   -1.7960   26.8570 H   0  0  0  0  0  0  0  0  0  0  0  0
    4.4350   -2.5970   25.3640 H   0  0  0  0  0  0  0  0  0  0  0  0
    7.2240    0.7810   26.6770 H   0  0  0  0  0  0  0  0  0  0  0  0
    6.7960    1.5470   29.4060 H   0  0  0  0  0  0  0  0  0  0  0  0
    5.5150    2.2960   28.4410 H   0  0  0  0  0  0  0  0  0  0  0  0
    7.2270    2.6060   28.0320 H   0  0  0  0  0  0  0  0  0  0  0  0
  1  2  1  0  0  0  0
  1 58  1  0  0  0  0
  1 59  1  0  0  0  0
  1 60  1  0  0  0  0
  2  3  1  0  0  0  0
  2 57  1  0  0  0  0
  3  4  2  0  0  0  0
  3  5  1  0  0  0  0
  5  6  1  0  0  0  0
  5 51  1  0  0  0  0
  5 52  1  0  0  0  0
  6  7  1  0  0  0  0
  6 44  1  0  0  0  0
  7  8  1  0  0  0  0
  7 49  1  0  0  0  0
  7 50  1  0  0  0  0
  8  9  1  6  0  0  0
  8 29  1  0  0  0  0
  8 37  1  0  0  0  0
  9 10  2  0  0  0  0
  9 11  1  0  0  0  0
 11 12  1  0  0  0  0
 11 28  1  0  0  0  0
 12 13  2  0  0  0  0
 12 21  1  0  0  0  0
 13 14  1  0  0  0  0
 13 27  1  0  0  0  0
 14 15  2  0  0  0  0
 15 16  1  0  0  0  0
 15 26  1  0  0  0  0
 16 17  2  0  0  0  0
 16 21  1  0  0  0  0
 17 18  1  0  0  0  0
 17 25  1  0  0  0  0
 18 19  2  0  0  0  0
 18 24  1  0  0  0  0
 19 20  1  0  0  0  0
 19 23  1  0  0  0  0
 20 21  2  0  0  0  0
 20 22  1  0  0  0  0
 28 29  1  0  0  0  0
 28 35  1  0  0  0  0
 28 36  1  0  0  0  0
 29 30  1  0  0  0  0
 29 34  1  6  0  0  0
 30 31  1  0  0  0  0
 30 32  1  0  0  0  0
 30 33  1  0  0  0  0
 37 38  2  0  0  0  0
 37 43  1  0  0  0  0
 38 39  1  0  0  0  0
 38 48  1  0  0  0  0
 39 40  1  0  0  0  0
 39 41  2  0  0  0  0
 41 42  1  0  0  0  0
 41 47  1  0  0  0  0
 42 43  2  0  0  0  0
 42 46  1  0  0  0  0
 43 44  1  0  0  0  0
 44 45  2  0  0  0  0
 51 52  1  0  0  0  0
 51 55  1  0  0  0  0
 51 56  1  0  0  0  0
 52 53  1  0  0  0  0
 52 54  1  0  0  0  0
M  END
>  <MODEL>
       1

$$$$
best_conformers_84.pdb
 OpenBabel02042510453D

 60 65  0  0  1  0  0  0  0  0999 V2000
    6.9810   -8.3310   24.2770 C   0  0  0  0  0  0  0  0  0  0  0  0
    6.4590   -7.1770   23.5780 N   0  0  0  0  0  0  0  0  0  0  0  0
    5.2450   -6.6900   23.9430 C   0  0  0  0  0  0  0  0  0  0  0  0
    4.5610   -7.2730   24.7750 O   0  0  0  0  0  0  0  0  0  0  0  0
    4.7830   -5.4370   23.1950 C   0  0  0  0  0  0  0  0  0  0  0  0
    5.2420   -4.1470   23.6490 N   0  0  0  0  0  0  0  0  0  0  0  0
    6.5350   -3.6540   23.2070 C   0  0  0  0  0  0  0  0  0  0  0  0
    6.5430   -2.1240   22.9760 C   0  0  2  0  0  0  0  0  0  0  0  0
    5.6880   -1.7540   21.7420 C   0  0  0  0  0  0  0  0  0  0  0  0
    4.5630   -2.1480   21.4920 O   0  0  0  0  0  0  0  0  0  0  0  0
    6.3940   -0.8740   20.9590 N   0  0  0  0  0  0  0  0  0  0  0  0
    5.8020   -0.2090   19.8550 C   0  0  0  0  0  0  0  0  0  0  0  0
    6.2610   -0.4600   18.5870 C   0  0  0  0  0  0  0  0  0  0  0  0
    5.7880    0.1310   17.4630 N   0  0  0  0  0  0  0  0  0  0  0  0
    4.8120    0.9970   17.6120 C   0  0  0  0  0  0  0  0  0  0  0  0
    4.2390    1.3580   18.8660 C   0  0  0  0  0  0  0  0  0  0  0  0
    3.1930    2.3190   18.9590 C   0  0  0  0  0  0  0  0  0  0  0  0
    2.6790    2.6680   20.1770 C   0  0  0  0  0  0  0  0  0  0  0  0
    3.1990    2.0840   21.3560 C   0  0  0  0  0  0  0  0  0  0  0  0
    4.2110    1.1580   21.2950 C   0  0  0  0  0  0  0  0  0  0  0  0
    4.7490    0.7500   20.0370 C   0  0  0  0  0  0  0  0  0  0  0  0
    4.5990    0.7230   22.2170 H   0  0  0  0  0  0  0  0  0  0  0  0
    2.7810    2.3700   22.3170 H   0  0  0  0  0  0  0  0  0  0  0  0
    1.8770    3.3990   20.2470 H   0  0  0  0  0  0  0  0  0  0  0  0
    2.8220    2.7710   18.0410 H   0  0  0  0  0  0  0  0  0  0  0  0
    4.4190    1.4540   16.7040 H   0  0  0  0  0  0  0  0  0  0  0  0
    7.0550   -1.1880   18.4320 H   0  0  0  0  0  0  0  0  0  0  0  0
    7.7320   -0.5790   21.4350 C   0  0  0  0  0  0  0  0  0  0  0  0
    7.9640   -1.5670   22.6070 C   0  0  2  0  0  0  0  0  0  0  0  0
    9.0210   -2.6160   22.2210 C   0  0  0  0  0  0  0  0  0  0  0  0
    9.2350   -3.3040   23.0440 H   0  0  0  0  0  0  0  0  0  0  0  0
    9.9630   -2.1210   21.9620 H   0  0  0  0  0  0  0  0  0  0  0  0
    8.7120   -3.2110   21.3560 H   0  0  0  0  0  0  0  0  0  0  0  0
    8.3570   -1.0370   23.4820 H   0  0  0  0  0  0  0  0  0  0  0  0
    7.8150    0.4750   21.7450 H   0  0  0  0  0  0  0  0  0  0  0  0
    8.4630   -0.7280   20.6320 H   0  0  0  0  0  0  0  0  0  0  0  0
    5.9360   -1.4590   24.2090 C   0  0  0  0  0  0  0  0  0  0  0  0
    6.1990   -0.1120   24.4930 C   0  0  0  0  0  0  0  0  0  0  0  0
    5.5990    0.4970   25.5820 C   0  0  0  0  0  0  0  0  0  0  0  0
    5.9320    2.1710   25.9230 Cl  0  0  0  0  0  0  0  0  0  0  0  0
    4.7240   -0.1990   26.4120 C   0  0  0  0  0  0  0  0  0  0  0  0
    4.4370   -1.5180   26.1190 C   0  0  0  0  0  0  0  0  0  0  0  0
    5.0220   -2.1470   25.0180 C   0  0  0  0  0  0  0  0  0  0  0  0
    4.5810   -3.5430   24.6930 C   0  0  0  0  0  0  0  0  0  0  0  0
    3.6770   -4.1040   25.2860 O   0  0  0  0  0  0  0  0  0  0  0  0
    3.7370   -2.0940   26.7130 H   0  0  0  0  0  0  0  0  0  0  0  0
    4.2720    0.3070   27.2580 H   0  0  0  0  0  0  0  0  0  0  0  0
    6.8540    0.4900   23.8700 H   0  0  0  0  0  0  0  0  0  0  0  0
    6.7540   -4.1530   22.2670 H   0  0  0  0  0  0  0  0  0  0  0  0
    7.3030   -3.8910   23.9590 H   0  0  0  0  0  0  0  0  0  0  0  0
    3.4120   -5.5400   22.6020 C   0  0  0  0  0  0  0  0  0  0  0  0
    4.6110   -5.6100   21.7000 C   0  0  0  0  0  0  0  0  0  0  0  0
    4.8200   -4.7360   21.0870 H   0  0  0  0  0  0  0  0  0  0  0  0
    4.8610   -6.5720   21.2520 H   0  0  0  0  0  0  0  0  0  0  0  0
    2.8400   -6.4290   22.8520 H   0  0  0  0  0  0  0  0  0  0  0  0
    2.8310   -4.6350   22.5600 H   0  0  0  0  0  0  0  0  0  0  0  0
    6.9970   -6.7260   22.8540 H   0  0  0  0  0  0  0  0  0  0  0  0
    7.9670   -8.5590   23.8680 H   0  0  0  0  0  0  0  0  0  0  0  0
    6.3220   -9.1970   24.1530 H   0  0  0  0  0  0  0  0  0  0  0  0
    7.0480   -8.1170   25.3520 H   0  0  0  0  0  0  0  0  0  0  0  0
  1  2  1  0  0  0  0
  1 58  1  0  0  0  0
  1 59  1  0  0  0  0
  1 60  1  0  0  0  0
  2  3  1  0  0  0  0
  2 57  1  0  0  0  0
  3  4  2  0  0  0  0
  3  5  1  0  0  0  0
  5  6  1  0  0  0  0
  5 51  1  0  0  0  0
  5 52  1  0  0  0  0
  6  7  1  0  0  0  0
  6 44  1  0  0  0  0
  7  8  1  0  0  0  0
  7 49  1  0  0  0  0
  7 50  1  0  0  0  0
  8  9  1  6  0  0  0
  8 29  1  0  0  0  0
  8 37  1  0  0  0  0
  9 10  2  0  0  0  0
  9 11  1  0  0  0  0
 11 12  1  0  0  0  0
 11 28  1  0  0  0  0
 12 13  2  0  0  0  0
 12 21  1  0  0  0  0
 13 14  1  0  0  0  0
 13 27  1  0  0  0  0
 14 15  2  0  0  0  0
 15 16  1  0  0  0  0
 15 26  1  0  0  0  0
 16 17  2  0  0  0  0
 16 21  1  0  0  0  0
 17 18  1  0  0  0  0
 17 25  1  0  0  0  0
 18 19  2  0  0  0  0
 18 24  1  0  0  0  0
 19 20  1  0  0  0  0
 19 23  1  0  0  0  0
 20 21  2  0  0  0  0
 20 22  1  0  0  0  0
 28 29  1  0  0  0  0
 28 35  1  0  0  0  0
 28 36  1  0  0  0  0
 29 30  1  0  0  0  0
 29 34  1  1  0  0  0
 30 31  1  0  0  0  0
 30 32  1  0  0  0  0
 30 33  1  0  0  0  0
 37 38  2  0  0  0  0
 37 43  1  0  0  0  0
 38 39  1  0  0  0  0
 38 48  1  0  0  0  0
 39 40  1  0  0  0  0
 39 41  2  0  0  0  0
 41 42  1  0  0  0  0
 41 47  1  0  0  0  0
 42 43  2  0  0  0  0
 42 46  1  0  0  0  0
 43 44  1  0  0  0  0
 44 45  2  0  0  0  0
 51 52  1  0  0  0  0
 51 55  1  0  0  0  0
 51 56  1  0  0  0  0
 52 53  1  0  0  0  0
 52 54  1  0  0  0  0
M  END
>  <MODEL>
       2

$$$$
best_conformers_84.pdb
 OpenBabel02042510453D

 60 65  0  0  1  0  0  0  0  0999 V2000
    6.3860    0.9810   29.5180 C   0  0  0  0  0  0  0  0  0  0  0  0
    6.4000   -0.2070   28.6800 N   0  0  0  0  0  0  0  0  0  0  0  0
    5.7520   -0.2200   27.4900 C   0  0  0  0  0  0  0  0  0  0  0  0
    5.0500    0.7160   27.1290 O   0  0  0  0  0  0  0  0  0  0  0  0
    5.9250   -1.4900   26.6470 C   0  0  0  0  0  0  0  0  0  0  0  0
    6.8980   -1.4190   25.5730 N   0  0  0  0  0  0  0  0  0  0  0  0
    6.5110   -0.7700   24.3190 C   0  0  0  0  0  0  0  0  0  0  0  0
    7.4600   -1.0760   23.1260 C   0  0  2  0  0  0  0  0  0  0  0  0
    7.0920   -0.0940   21.9910 C   0  0  0  0  0  0  0  0  0  0  0  0
    7.2910    1.1030   21.9680 O   0  0  0  0  0  0  0  0  0  0  0  0
    6.4530   -0.7890   20.9850 N   0  0  0  0  0  0  0  0  0  0  0  0
    5.8470   -0.1520   19.8720 C   0  0  0  0  0  0  0  0  0  0  0  0
    6.2620   -0.4580   18.5970 C   0  0  0  0  0  0  0  0  0  0  0  0
    5.7770    0.1130   17.4680 N   0  0  0  0  0  0  0  0  0  0  0  0
    4.8120    0.9930   17.6100 C   0  0  0  0  0  0  0  0  0  0  0  0
    4.2460    1.3640   18.8640 C   0  0  0  0  0  0  0  0  0  0  0  0
    3.1840    2.3060   18.9540 C   0  0  0  0  0  0  0  0  0  0  0  0
    2.6330    2.6180   20.1670 C   0  0  0  0  0  0  0  0  0  0  0  0
    3.1130    1.9980   21.3400 C   0  0  0  0  0  0  0  0  0  0  0  0
    4.1410    1.0920   21.2800 C   0  0  0  0  0  0  0  0  0  0  0  0
    4.7570    0.7660   20.0370 C   0  0  0  0  0  0  0  0  0  0  0  0
    4.4980    0.6260   22.1910 H   0  0  0  0  0  0  0  0  0  0  0  0
    2.6710    2.2500   22.3000 H   0  0  0  0  0  0  0  0  0  0  0  0
    1.8280    3.3480   20.2340 H   0  0  0  0  0  0  0  0  0  0  0  0
    2.8260    2.7730   18.0390 H   0  0  0  0  0  0  0  0  0  0  0  0
    4.4220    1.4550   16.7020 H   0  0  0  0  0  0  0  0  0  0  0  0
    7.0490   -1.1960   18.4430 H   0  0  0  0  0  0  0  0  0  0  0  0
    6.2860   -2.2020   21.2660 C   0  0  0  0  0  0  0  0  0  0  0  0
    7.2550   -2.4700   22.4260 C   0  0  2  0  0  0  0  0  0  0  0  0
    6.8220   -3.6280   23.3220 C   0  0  0  0  0  0  0  0  0  0  0  0
    7.4910   -3.7380   24.1810 H   0  0  0  0  0  0  0  0  0  0  0  0
    5.8060   -3.4770   23.7010 H   0  0  0  0  0  0  0  0  0  0  0  0
    6.8230   -4.5690   22.7640 H   0  0  0  0  0  0  0  0  0  0  0  0
    8.2370   -2.7100   21.9930 H   0  0  0  0  0  0  0  0  0  0  0  0
    6.5110   -2.7840   20.3730 H   0  0  0  0  0  0  0  0  0  0  0  0
    5.2470   -2.4230   21.5500 H   0  0  0  0  0  0  0  0  0  0  0  0
    8.8940   -0.8980   23.5930 C   0  0  0  0  0  0  0  0  0  0  0  0
    9.9050   -0.5980   22.6690 C   0  0  0  0  0  0  0  0  0  0  0  0
   11.2240   -0.5300   23.0860 C   0  0  0  0  0  0  0  0  0  0  0  0
   12.4770   -0.1250   21.9440 Cl  0  0  0  0  0  0  0  0  0  0  0  0
   11.5750   -0.7810   24.4130 C   0  0  0  0  0  0  0  0  0  0  0  0
   10.5840   -1.1130   25.3200 C   0  0  0  0  0  0  0  0  0  0  0  0
    9.2470   -1.1700   24.9170 C   0  0  0  0  0  0  0  0  0  0  0  0
    8.2220   -1.5820   25.9230 C   0  0  0  0  0  0  0  0  0  0  0  0
    8.5430   -2.0650   26.9910 O   0  0  0  0  0  0  0  0  0  0  0  0
   10.8150   -1.3520   26.3550 H   0  0  0  0  0  0  0  0  0  0  0  0
   12.6170   -0.7320   24.7090 H   0  0  0  0  0  0  0  0  0  0  0  0
    9.6660   -0.4070   21.6290 H   0  0  0  0  0  0  0  0  0  0  0  0
    6.4980    0.3210   24.4540 H   0  0  0  0  0  0  0  0  0  0  0  0
    5.5000   -1.1070   24.0680 H   0  0  0  0  0  0  0  0  0  0  0  0
    5.6690   -2.8140   27.3090 C   0  0  0  0  0  0  0  0  0  0  0  0
    4.6330   -2.2280   26.4020 C   0  0  0  0  0  0  0  0  0  0  0  0
    3.7460   -1.7740   26.8330 H   0  0  0  0  0  0  0  0  0  0  0  0
    4.4990   -2.6780   25.4220 H   0  0  0  0  0  0  0  0  0  0  0  0
    5.5040   -2.8390   28.3800 H   0  0  0  0  0  0  0  0  0  0  0  0
    6.2530   -3.6430   26.9300 H   0  0  0  0  0  0  0  0  0  0  0  0
    7.1030   -0.9170   28.8360 H   0  0  0  0  0  0  0  0  0  0  0  0
    6.7350    1.8620   28.9690 H   0  0  0  0  0  0  0  0  0  0  0  0
    7.0250    0.8260   30.3920 H   0  0  0  0  0  0  0  0  0  0  0  0
    5.3710    1.1990   29.8640 H   0  0  0  0  0  0  0  0  0  0  0  0
  1  2  1  0  0  0  0
  1 58  1  0  0  0  0
  1 59  1  0  0  0  0
  1 60  1  0  0  0  0
  2  3  1  0  0  0  0
  2 57  1  0  0  0  0
  3  4  2  0  0  0  0
  3  5  1  0  0  0  0
  5  6  1  0  0  0  0
  5 51  1  0  0  0  0
  5 52  1  0  0  0  0
  6  7  1  0  0  0  0
  6 44  1  0  0  0  0
  7  8  1  0  0  0  0
  7 49  1  0  0  0  0
  7 50  1  0  0  0  0
  8  9  1  6  0  0  0
  8 29  1  0  0  0  0
  8 37  1  0  0  0  0
  9 10  2  0  0  0  0
  9 11  1  0  0  0  0
 11 12  1  0  0  0  0
 11 28  1  0  0  0  0
 12 13  2  0  0  0  0
 12 21  1  0  0  0  0
 13 14  1  0  0  0  0
 13 27  1  0  0  0  0
 14 15  2  0  0  0  0
 15 16  1  0  0  0  0
 15 26  1  0  0  0  0
 16 17  2  0  0  0  0
 16 21  1  0  0  0  0
 17 18  1  0  0  0  0
 17 25  1  0  0  0  0
 18 19  2  0  0  0  0
 18 24  1  0  0  0  0
 19 20  1  0  0  0  0
 19 23  1  0  0  0  0
 20 21  2  0  0  0  0
 20 22  1  0  0  0  0
 28 29  1  0  0  0  0
 28 35  1  0  0  0  0
 28 36  1  0  0  0  0
 29 30  1  0  0  0  0
 29 34  1  6  0  0  0
 30 31  1  0  0  0  0
 30 32  1  0  0  0  0
 30 33  1  0  0  0  0
 37 38  2  0  0  0  0
 37 43  1  0  0  0  0
 38 39  1  0  0  0  0
 38 48  1  0  0  0  0
 39 40  1  0  0  0  0
 39 41  2  0  0  0  0
 41 42  1  0  0  0  0
 41 47  1  0  0  0  0
 42 43  2  0  0  0  0
 42 46  1  0  0  0  0
 43 44  1  0  0  0  0
 44 45  2  0  0  0  0
 51 52  1  0  0  0  0
 51 55  1  0  0  0  0
 51 56  1  0  0  0  0
 52 53  1  0  0  0  0
 52 54  1  0  0  0  0
M  END
>  <MODEL>
       3

$$$$
