best_conformers_94.pdb
 OpenBabel02042510453D

 65 69  0  0  0  0  0  0  0  0999 V2000
   11.5100    0.1290   22.4170 C   0  0  0  0  0  0  0  0  0  0  0  0
   10.3920    0.3240   23.4410 C   0  0  0  0  0  0  0  0  0  0  0  0
   10.7420   -0.3260   24.7600 C   0  0  0  0  0  0  0  0  0  0  0  0
   11.6870   -0.0450   25.4520 O   0  0  0  0  0  0  0  0  0  0  0  0
    9.8480   -1.4410   25.2340 N   0  3  0  0  0  0  0  0  0  0  0  0
   10.3190   -2.8260   24.7310 C   0  0  0  0  0  0  0  0  0  0  0  0
    9.7450   -3.1040   23.3610 C   0  0  0  0  0  0  0  0  0  0  0  0
    8.2330   -3.1570   23.4740 C   0  0  0  0  0  0  0  0  0  0  0  0
    7.6600   -1.8910   24.0760 C   0  0  0  0  0  0  0  0  0  0  0  0
    6.3520   -1.4730   23.8010 C   0  0  0  0  0  0  0  0  0  0  0  0
    5.6200   -2.1510   22.7820 N   0  0  0  0  0  0  0  0  0  0  0  0
    4.6170   -3.0940   23.2450 C   0  0  0  0  0  0  0  0  0  0  0  0
    5.1300   -4.3790   23.8480 C   0  0  0  0  0  0  0  0  0  0  0  0
    5.0200   -4.5940   25.2220 C   0  0  0  0  0  0  0  0  0  0  0  0
    5.3880   -5.8110   25.7750 C   0  0  0  0  0  0  0  0  0  0  0  0
    5.9180   -6.8140   24.9720 C   0  0  0  0  0  0  0  0  0  0  0  0
    6.0920   -6.5700   23.6110 C   0  0  0  0  0  0  0  0  0  0  0  0
    6.9100   -7.7700   22.6500 Cl  0  0  0  0  0  0  0  0  0  0  0  0
    5.6780   -5.3740   23.0340 C   0  0  0  0  0  0  0  0  0  0  0  0
    5.7950   -5.2280   21.9610 H   0  0  0  0  0  0  0  0  0  0  0  0
    6.2320   -7.7620   25.4010 H   0  0  0  0  0  0  0  0  0  0  0  0
    5.2700   -5.9440   26.8530 H   0  0  0  0  0  0  0  0  0  0  0  0
    4.6300   -3.7940   25.8530 H   0  0  0  0  0  0  0  0  0  0  0  0
    4.0240   -2.5880   24.0120 H   0  0  0  0  0  0  0  0  0  0  0  0
    4.0140   -3.3090   22.3620 H   0  0  0  0  0  0  0  0  0  0  0  0
    5.7470   -1.9470   21.4220 C   0  0  0  0  0  0  0  0  0  0  0  0
    5.1890   -2.6750   20.6160 O   0  0  0  0  0  0  0  0  0  0  0  0
    6.5980   -0.7700   20.9190 C   0  0  0  0  0  0  0  0  0  0  0  0
    5.9320   -0.0970   19.7410 C   0  0  0  0  0  0  0  0  0  0  0  0
    6.3270   -0.3690   18.4590 C   0  0  0  0  0  0  0  0  0  0  0  0
    5.7970    0.1760   17.3290 N   0  0  0  0  0  0  0  0  0  0  0  0
    4.8080    1.0200   17.5000 C   0  0  0  0  0  0  0  0  0  0  0  0
    4.2690    1.3800   18.7640 C   0  0  0  0  0  0  0  0  0  0  0  0
    3.2030    2.3060   18.8860 C   0  0  0  0  0  0  0  0  0  0  0  0
    2.6830    2.6100   20.1110 C   0  0  0  0  0  0  0  0  0  0  0  0
    3.2020    1.9890   21.2730 C   0  0  0  0  0  0  0  0  0  0  0  0
    4.2410    1.0970   21.1850 C   0  0  0  0  0  0  0  0  0  0  0  0
    4.8220    0.7830   19.9260 C   0  0  0  0  0  0  0  0  0  0  0  0
    4.6210    0.6290   22.0940 H   0  0  0  0  0  0  0  0  0  0  0  0
    2.7750    2.2340   22.2420 H   0  0  0  0  0  0  0  0  0  0  0  0
    1.8740    3.3290   20.2030 H   0  0  0  0  0  0  0  0  0  0  0  0
    2.8170    2.7680   17.9780 H   0  0  0  0  0  0  0  0  0  0  0  0
    4.3720    1.4670   16.6040 H   0  0  0  0  0  0  0  0  0  0  0  0
    7.1410   -1.0710   18.2790 H   0  0  0  0  0  0  0  0  0  0  0  0
    6.7900   -0.0650   21.7360 H   0  0  0  0  0  0  0  0  0  0  0  0
    7.5670   -1.1850   20.6010 H   0  0  0  0  0  0  0  0  0  0  0  0
    5.7410   -0.4820   24.5650 C   0  0  0  0  0  0  0  0  0  0  0  0
    6.4680    0.1890   25.5460 C   0  0  0  0  0  0  0  0  0  0  0  0
    7.8080   -0.1340   25.7470 C   0  0  0  0  0  0  0  0  0  0  0  0
    8.3870   -1.1720   25.0210 C   0  0  0  0  0  0  0  0  0  0  0  0
    8.4120    0.4040   26.4710 H   0  0  0  0  0  0  0  0  0  0  0  0
    5.9920    0.9540   26.1540 H   0  0  0  0  0  0  0  0  0  0  0  0
    4.6920   -0.2410   24.3950 H   0  0  0  0  0  0  0  0  0  0  0  0
    7.9630   -3.9810   24.1470 H   0  0  0  0  0  0  0  0  0  0  0  0
    7.7690   -3.3760   22.5110 H   0  0  0  0  0  0  0  0  0  0  0  0
   10.1320   -4.0570   23.0070 H   0  0  0  0  0  0  0  0  0  0  0  0
   10.0460   -2.3460   22.6300 H   0  0  0  0  0  0  0  0  0  0  0  0
    9.9390   -3.5690   25.4380 H   0  0  0  0  0  0  0  0  0  0  0  0
   11.4110   -2.8600   24.7470 H   0  0  0  0  0  0  0  0  0  0  0  0
   10.0290   -1.4370   26.2610 H   0  0  0  0  0  0  0  0  0  0  0  0
    9.4520   -0.1050   23.0820 H   0  0  0  0  0  0  0  0  0  0  0  0
   10.2080    1.3870   23.6320 H   0  0  0  0  0  0  0  0  0  0  0  0
   11.7830   -0.9280   22.3370 H   0  0  0  0  0  0  0  0  0  0  0  0
   12.4100    0.6830   22.6940 H   0  0  0  0  0  0  0  0  0  0  0  0
   11.1770    0.4630   21.4340 H   0  0  0  0  0  0  0  0  0  0  0  0
  1  2  1  0  0  0  0
  1 63  1  0  0  0  0
  1 64  1  0  0  0  0
  1 65  1  0  0  0  0
  2  3  1  0  0  0  0
  2 61  1  0  0  0  0
  2 62  1  0  0  0  0
  3  4  2  0  0  0  0
  3  5  1  0  0  0  0
  5  6  1  0  0  0  0
  5 50  1  0  0  0  0
  5 60  1  0  0  0  0
  6  7  1  0  0  0  0
  6 58  1  0  0  0  0
  6 59  1  0  0  0  0
  7  8  1  0  0  0  0
  7 56  1  0  0  0  0
  7 57  1  0  0  0  0
  8  9  1  0  0  0  0
  8 54  1  0  0  0  0
  8 55  1  0  0  0  0
  9 10  2  0  0  0  0
  9 50  1  0  0  0  0
 10 11  1  0  0  0  0
 10 47  1  0  0  0  0
 11 12  1  0  0  0  0
 11 26  1  0  0  0  0
 12 13  1  0  0  0  0
 12 24  1  0  0  0  0
 12 25  1  0  0  0  0
 13 14  2  0  0  0  0
 13 19  1  0  0  0  0
 14 15  1  0  0  0  0
 14 23  1  0  0  0  0
 15 16  2  0  0  0  0
 15 22  1  0  0  0  0
 16 17  1  0  0  0  0
 16 21  1  0  0  0  0
 17 18  1  0  0  0  0
 17 19  2  0  0  0  0
 19 20  1  0  0  0  0
 26 27  2  0  0  0  0
 26 28  1  0  0  0  0
 28 29  1  0  0  0  0
 28 45  1  0  0  0  0
 28 46  1  0  0  0  0
 29 30  2  0  0  0  0
 29 38  1  0  0  0  0
 30 31  1  0  0  0  0
 30 44  1  0  0  0  0
 31 32  2  0  0  0  0
 32 33  1  0  0  0  0
 32 43  1  0  0  0  0
 33 34  2  0  0  0  0
 33 38  1  0  0  0  0
 34 35  1  0  0  0  0
 34 42  1  0  0  0  0
 35 36  2  0  0  0  0
 35 41  1  0  0  0  0
 36 37  1  0  0  0  0
 36 40  1  0  0  0  0
 37 38  2  0  0  0  0
 37 39  1  0  0  0  0
 47 48  2  0  0  0  0
 47 53  1  0  0  0  0
 48 49  1  0  0  0  0
 48 52  1  0  0  0  0
 49 50  2  0  0  0  0
 49 51  1  0  0  0  0
M  CHG  1   5   1
M  END
>  <MODEL>
       1

$$$$
best_conformers_94.pdb
 OpenBabel02042510453D

 65 69  0  0  0  0  0  0  0  0999 V2000
   11.5210   -4.8970   27.7700 C   0  0  0  0  0  0  0  0  0  0  0  0
   10.0410   -4.6540   27.5070 C   0  0  0  0  0  0  0  0  0  0  0  0
    9.7020   -3.4220   26.7150 C   0  0  0  0  0  0  0  0  0  0  0  0
    9.9360   -2.2860   26.9800 O   0  0  0  0  0  0  0  0  0  0  0  0
    8.9240   -3.7370   25.2980 N   0  3  0  0  0  0  0  0  0  0  0  0
    9.9090   -3.9040   24.1510 C   0  0  0  0  0  0  0  0  0  0  0  0
   10.5090   -2.5350   23.8550 C   0  0  0  0  0  0  0  0  0  0  0  0
    9.4410   -1.5970   23.2900 C   0  0  0  0  0  0  0  0  0  0  0  0
    8.1120   -1.7010   24.0390 C   0  0  0  0  0  0  0  0  0  0  0  0
    7.1000   -0.7390   23.8710 C   0  0  0  0  0  0  0  0  0  0  0  0
    7.3850    0.4180   23.0750 N   0  0  0  0  0  0  0  0  0  0  0  0
    7.7650    1.6520   23.7650 C   0  0  0  0  0  0  0  0  0  0  0  0
    6.5730    2.5640   23.9840 C   0  0  0  0  0  0  0  0  0  0  0  0
    5.8310    2.5220   25.1660 C   0  0  0  0  0  0  0  0  0  0  0  0
    4.7160    3.3380   25.3310 C   0  0  0  0  0  0  0  0  0  0  0  0
    4.3130    4.1940   24.3140 C   0  0  0  0  0  0  0  0  0  0  0  0
    5.0460    4.2100   23.1310 C   0  0  0  0  0  0  0  0  0  0  0  0
    4.5190    5.2250   21.8170 Cl  0  0  0  0  0  0  0  0  0  0  0  0
    6.1670    3.4090   22.9550 C   0  0  0  0  0  0  0  0  0  0  0  0
    6.7120    3.4150   22.0140 H   0  0  0  0  0  0  0  0  0  0  0  0
    3.4460    4.8380   24.4300 H   0  0  0  0  0  0  0  0  0  0  0  0
    4.1450    3.3050   26.2560 H   0  0  0  0  0  0  0  0  0  0  0  0
    6.1080    1.8250   25.9550 H   0  0  0  0  0  0  0  0  0  0  0  0
    8.5270    2.1660   23.1610 H   0  0  0  0  0  0  0  0  0  0  0  0
    8.1850    1.3530   24.7300 H   0  0  0  0  0  0  0  0  0  0  0  0
    7.3220    0.4430   21.7020 C   0  0  0  0  0  0  0  0  0  0  0  0
    7.8550    1.3190   21.0410 O   0  0  0  0  0  0  0  0  0  0  0  0
    6.5400   -0.6850   21.0200 C   0  0  0  0  0  0  0  0  0  0  0  0
    5.8430   -0.1450   19.8180 C   0  0  0  0  0  0  0  0  0  0  0  0
    6.3070   -0.4040   18.5600 C   0  0  0  0  0  0  0  0  0  0  0  0
    5.8090    0.1360   17.4160 N   0  0  0  0  0  0  0  0  0  0  0  0
    4.8160    0.9890   17.5600 C   0  0  0  0  0  0  0  0  0  0  0  0
    4.2460    1.3620   18.8100 C   0  0  0  0  0  0  0  0  0  0  0  0
    3.1960    2.3100   18.9160 C   0  0  0  0  0  0  0  0  0  0  0  0
    2.6460    2.6200   20.1290 C   0  0  0  0  0  0  0  0  0  0  0  0
    3.1280    1.9960   21.3020 C   0  0  0  0  0  0  0  0  0  0  0  0
    4.1700    1.1070   21.2340 C   0  0  0  0  0  0  0  0  0  0  0  0
    4.7620    0.7670   19.9840 C   0  0  0  0  0  0  0  0  0  0  0  0
    4.5520    0.6760   22.1580 H   0  0  0  0  0  0  0  0  0  0  0  0
    2.6700    2.2370   22.2590 H   0  0  0  0  0  0  0  0  0  0  0  0
    1.8400    3.3440   20.1970 H   0  0  0  0  0  0  0  0  0  0  0  0
    2.8310    2.7830   18.0070 H   0  0  0  0  0  0  0  0  0  0  0  0
    4.4080    1.4320   16.6520 H   0  0  0  0  0  0  0  0  0  0  0  0
    7.1460   -1.0900   18.4230 H   0  0  0  0  0  0  0  0  0  0  0  0
    7.2620   -1.4600   20.7350 H   0  0  0  0  0  0  0  0  0  0  0  0
    5.8430   -1.1450   21.7240 H   0  0  0  0  0  0  0  0  0  0  0  0
    5.8630   -0.8560   24.5040 C   0  0  0  0  0  0  0  0  0  0  0  0
    5.5890   -1.9740   25.2880 C   0  0  0  0  0  0  0  0  0  0  0  0
    6.5790   -2.9310   25.4810 C   0  0  0  0  0  0  0  0  0  0  0  0
    7.8440   -2.7650   24.9100 C   0  0  0  0  0  0  0  0  0  0  0  0
    6.3890   -3.8050   26.0990 H   0  0  0  0  0  0  0  0  0  0  0  0
    4.6190   -2.0900   25.7680 H   0  0  0  0  0  0  0  0  0  0  0  0
    5.1160   -0.0730   24.3760 H   0  0  0  0  0  0  0  0  0  0  0  0
    9.8000   -0.5610   23.3070 H   0  0  0  0  0  0  0  0  0  0  0  0
    9.2870   -1.8180   22.2250 H   0  0  0  0  0  0  0  0  0  0  0  0
   11.3420   -2.6240   23.1560 H   0  0  0  0  0  0  0  0  0  0  0  0
   10.8940   -2.1070   24.7850 H   0  0  0  0  0  0  0  0  0  0  0  0
   10.6680   -4.6480   24.4120 H   0  0  0  0  0  0  0  0  0  0  0  0
    9.3480   -4.2640   23.2820 H   0  0  0  0  0  0  0  0  0  0  0  0
    8.4440   -4.6200   25.5300 H   0  0  0  0  0  0  0  0  0  0  0  0
    9.5030   -4.5480   28.4530 H   0  0  0  0  0  0  0  0  0  0  0  0
    9.6740   -5.5280   26.9610 H   0  0  0  0  0  0  0  0  0  0  0  0
   11.6140   -5.8080   28.3660 H   0  0  0  0  0  0  0  0  0  0  0  0
   12.0290   -5.0570   26.8170 H   0  0  0  0  0  0  0  0  0  0  0  0
   12.0090   -4.0920   28.3220 H   0  0  0  0  0  0  0  0  0  0  0  0
  1  2  1  0  0  0  0
  1 63  1  0  0  0  0
  1 64  1  0  0  0  0
  1 65  1  0  0  0  0
  2  3  1  0  0  0  0
  2 61  1  0  0  0  0
  2 62  1  0  0  0  0
  3  4  2  0  0  0  0
  3  5  1  0  0  0  0
  5  6  1  0  0  0  0
  5 50  1  0  0  0  0
  5 60  1  0  0  0  0
  6  7  1  0  0  0  0
  6 58  1  0  0  0  0
  6 59  1  0  0  0  0
  7  8  1  0  0  0  0
  7 56  1  0  0  0  0
  7 57  1  0  0  0  0
  8  9  1  0  0  0  0
  8 54  1  0  0  0  0
  8 55  1  0  0  0  0
  9 10  2  0  0  0  0
  9 50  1  0  0  0  0
 10 11  1  0  0  0  0
 10 47  1  0  0  0  0
 11 12  1  0  0  0  0
 11 26  1  0  0  0  0
 12 13  1  0  0  0  0
 12 24  1  0  0  0  0
 12 25  1  0  0  0  0
 13 14  2  0  0  0  0
 13 19  1  0  0  0  0
 14 15  1  0  0  0  0
 14 23  1  0  0  0  0
 15 16  2  0  0  0  0
 15 22  1  0  0  0  0
 16 17  1  0  0  0  0
 16 21  1  0  0  0  0
 17 18  1  0  0  0  0
 17 19  2  0  0  0  0
 19 20  1  0  0  0  0
 26 27  2  0  0  0  0
 26 28  1  0  0  0  0
 28 29  1  0  0  0  0
 28 45  1  0  0  0  0
 28 46  1  0  0  0  0
 29 30  2  0  0  0  0
 29 38  1  0  0  0  0
 30 31  1  0  0  0  0
 30 44  1  0  0  0  0
 31 32  2  0  0  0  0
 32 33  1  0  0  0  0
 32 43  1  0  0  0  0
 33 34  2  0  0  0  0
 33 38  1  0  0  0  0
 34 35  1  0  0  0  0
 34 42  1  0  0  0  0
 35 36  2  0  0  0  0
 35 41  1  0  0  0  0
 36 37  1  0  0  0  0
 36 40  1  0  0  0  0
 37 38  2  0  0  0  0
 37 39  1  0  0  0  0
 47 48  2  0  0  0  0
 47 53  1  0  0  0  0
 48 49  1  0  0  0  0
 48 52  1  0  0  0  0
 49 50  2  0  0  0  0
 49 51  1  0  0  0  0
M  CHG  1   5   1
M  END
>  <MODEL>
       2

$$$$
