best_conformers_33.pdb
 OpenBabel02042510453D

 44 47  0  0  1  0  0  0  0  0999 V2000
    4.8570   -2.6790   20.7800 O   0  0  0  0  0  0  0  0  0  0  0  0
    5.5960   -2.0830   21.5530 C   0  0  0  0  0  0  0  0  0  0  0  0
    6.4270   -0.8750   21.0510 C   0  0  0  0  0  0  0  0  0  0  0  0
    5.8070   -0.1790   19.8540 C   0  0  0  0  0  0  0  0  0  0  0  0
    6.2300   -0.4450   18.5740 C   0  0  0  0  0  0  0  0  0  0  0  0
    5.7520    0.1350   17.4360 N   0  0  0  0  0  0  0  0  0  0  0  0
    4.7870    1.0110   17.5820 C   0  0  0  0  0  0  0  0  0  0  0  0
    4.2270    1.3800   18.8380 C   0  0  0  0  0  0  0  0  0  0  0  0
    3.1750    2.3250   18.9420 C   0  0  0  0  0  0  0  0  0  0  0  0
    2.6450    2.6440   20.1600 C   0  0  0  0  0  0  0  0  0  0  0  0
    3.1520    2.0240   21.3280 C   0  0  0  0  0  0  0  0  0  0  0  0
    4.1720    1.1090   21.2640 C   0  0  0  0  0  0  0  0  0  0  0  0
    4.7450    0.7680   20.0100 C   0  0  0  0  0  0  0  0  0  0  0  0
    4.5450    0.6470   22.1790 H   0  0  0  0  0  0  0  0  0  0  0  0
    2.7260    2.2920   22.2880 H   0  0  0  0  0  0  0  0  0  0  0  0
    1.8400    3.3710   20.2440 H   0  0  0  0  0  0  0  0  0  0  0  0
    2.7990    2.7920   18.0320 H   0  0  0  0  0  0  0  0  0  0  0  0
    4.3980    1.4880   16.6780 H   0  0  0  0  0  0  0  0  0  0  0  0
    7.0190   -1.1800   18.4020 H   0  0  0  0  0  0  0  0  0  0  0  0
    7.4020   -1.2740   20.7360 H   0  0  0  0  0  0  0  0  0  0  0  0
    6.6510   -0.1590   21.8530 H   0  0  0  0  0  0  0  0  0  0  0  0
    5.7360   -2.5160   22.8460 N   0  0  0  0  0  0  0  0  0  0  0  0
    5.1210   -3.7790   23.2550 C   0  0  0  0  0  0  0  0  0  0  0  0
    5.4360   -3.9270   24.7440 C   0  0  0  0  0  0  0  0  0  0  0  0
    6.5520   -2.9210   25.0310 C   0  0  0  0  0  0  0  0  0  0  0  0
    6.4590   -1.8590   23.9240 C   0  0  2  0  0  0  0  0  0  0  0  0
    5.7850   -0.5840   24.3970 C   0  0  0  0  0  0  0  0  0  0  0  0
    6.5380    0.5700   24.6130 C   0  0  0  0  0  0  0  0  0  0  0  0
    5.9300    1.7390   25.0560 C   0  0  0  0  0  0  0  0  0  0  0  0
    4.5660    1.7790   25.3080 C   0  0  0  0  0  0  0  0  0  0  0  0
    3.8460    0.6110   25.1170 C   0  0  0  0  0  0  0  0  0  0  0  0
    2.5240    0.6310   25.3560 F   0  0  0  0  0  0  0  0  0  0  0  0
    4.4220   -0.5680   24.6760 C   0  0  0  0  0  0  0  0  0  0  0  0
    3.7940   -1.4440   24.5470 H   0  0  0  0  0  0  0  0  0  0  0  0
    4.0630    2.6830   25.6370 H   0  0  0  0  0  0  0  0  0  0  0  0
    6.5220    2.6340   25.1910 H   0  0  0  0  0  0  0  0  0  0  0  0
    7.6090    0.5550   24.4220 H   0  0  0  0  0  0  0  0  0  0  0  0
    7.4630   -1.6060   23.5820 H   0  0  0  0  0  0  0  0  0  0  0  0
    6.4560   -2.4760   26.0230 H   0  0  0  0  0  0  0  0  0  0  0  0
    7.5300   -3.4100   25.0140 H   0  0  0  0  0  0  0  0  0  0  0  0
    5.7440   -4.9440   24.9900 H   0  0  0  0  0  0  0  0  0  0  0  0
    4.5580   -3.7240   25.3640 H   0  0  0  0  0  0  0  0  0  0  0  0
    5.5350   -4.5940   22.6590 H   0  0  0  0  0  0  0  0  0  0  0  0
    4.0480   -3.7890   23.0640 H   0  0  0  0  0  0  0  0  0  0  0  0
  1  2  2  0  0  0  0
  2  3  1  0  0  0  0
  2 22  1  0  0  0  0
  3  4  1  0  0  0  0
  3 20  1  0  0  0  0
  3 21  1  0  0  0  0
  4  5  2  0  0  0  0
  4 13  1  0  0  0  0
  5  6  1  0  0  0  0
  5 19  1  0  0  0  0
  6  7  2  0  0  0  0
  7  8  1  0  0  0  0
  7 18  1  0  0  0  0
  8  9  2  0  0  0  0
  8 13  1  0  0  0  0
  9 10  1  0  0  0  0
  9 17  1  0  0  0  0
 10 11  2  0  0  0  0
 10 16  1  0  0  0  0
 11 12  1  0  0  0  0
 11 15  1  0  0  0  0
 12 13  2  0  0  0  0
 12 14  1  0  0  0  0
 22 23  1  0  0  0  0
 22 26  1  0  0  0  0
 23 24  1  0  0  0  0
 23 43  1  0  0  0  0
 23 44  1  0  0  0  0
 24 25  1  0  0  0  0
 24 41  1  0  0  0  0
 24 42  1  0  0  0  0
 25 26  1  0  0  0  0
 25 39  1  0  0  0  0
 25 40  1  0  0  0  0
 26 27  1  0  0  0  0
 26 38  1  6  0  0  0
 27 28  2  0  0  0  0
 27 33  1  0  0  0  0
 28 29  1  0  0  0  0
 28 37  1  0  0  0  0
 29 30  2  0  0  0  0
 29 36  1  0  0  0  0
 30 31  1  0  0  0  0
 30 35  1  0  0  0  0
 31 32  1  0  0  0  0
 31 33  2  0  0  0  0
 33 34  1  0  0  0  0
M  END
>  <MODEL>
       1

$$$$
best_conformers_33.pdb
 OpenBabel02042510453D

 44 47  0  0  1  0  0  0  0  0999 V2000
    4.8600   -2.6810   20.7790 O   0  0  0  0  0  0  0  0  0  0  0  0
    5.5990   -2.0850   21.5520 C   0  0  0  0  0  0  0  0  0  0  0  0
    6.4280   -0.8750   21.0500 C   0  0  0  0  0  0  0  0  0  0  0  0
    5.8070   -0.1790   19.8540 C   0  0  0  0  0  0  0  0  0  0  0  0
    6.2310   -0.4450   18.5740 C   0  0  0  0  0  0  0  0  0  0  0  0
    5.7530    0.1350   17.4350 N   0  0  0  0  0  0  0  0  0  0  0  0
    4.7870    1.0110   17.5820 C   0  0  0  0  0  0  0  0  0  0  0  0
    4.2270    1.3800   18.8380 C   0  0  0  0  0  0  0  0  0  0  0  0
    3.1750    2.3250   18.9420 C   0  0  0  0  0  0  0  0  0  0  0  0
    2.6450    2.6450   20.1610 C   0  0  0  0  0  0  0  0  0  0  0  0
    3.1520    2.0240   21.3290 C   0  0  0  0  0  0  0  0  0  0  0  0
    4.1720    1.1090   21.2650 C   0  0  0  0  0  0  0  0  0  0  0  0
    4.7450    0.7680   20.0100 C   0  0  0  0  0  0  0  0  0  0  0  0
    4.5410    0.6440   22.1810 H   0  0  0  0  0  0  0  0  0  0  0  0
    2.7270    2.2890   22.2900 H   0  0  0  0  0  0  0  0  0  0  0  0
    1.8400    3.3720   20.2450 H   0  0  0  0  0  0  0  0  0  0  0  0
    2.7990    2.7920   18.0320 H   0  0  0  0  0  0  0  0  0  0  0  0
    4.3980    1.4880   16.6780 H   0  0  0  0  0  0  0  0  0  0  0  0
    7.0190   -1.1800   18.4020 H   0  0  0  0  0  0  0  0  0  0  0  0
    7.4030   -1.2720   20.7350 H   0  0  0  0  0  0  0  0  0  0  0  0
    6.6510   -0.1580   21.8510 H   0  0  0  0  0  0  0  0  0  0  0  0
    5.7420   -2.5190   22.8440 N   0  0  0  0  0  0  0  0  0  0  0  0
    5.1290   -3.7830   23.2520 C   0  0  0  0  0  0  0  0  0  0  0  0
    5.4440   -3.9320   24.7410 C   0  0  0  0  0  0  0  0  0  0  0  0
    6.5540   -2.9200   25.0320 C   0  0  0  0  0  0  0  0  0  0  0  0
    6.4580   -1.8570   23.9240 C   0  0  2  0  0  0  0  0  0  0  0  0
    5.7770   -0.5850   24.3960 C   0  0  0  0  0  0  0  0  0  0  0  0
    4.4120   -0.5630   24.6780 C   0  0  0  0  0  0  0  0  0  0  0  0
    3.8010    0.6020   25.1210 C   0  0  0  0  0  0  0  0  0  0  0  0
    4.5330    1.7690   25.3040 C   0  0  0  0  0  0  0  0  0  0  0  0
    5.8930    1.7160   25.0460 C   0  0  0  0  0  0  0  0  0  0  0  0
    6.6210    2.8320   25.2150 F   0  0  0  0  0  0  0  0  0  0  0  0
    6.5310    0.5680   24.6060 C   0  0  0  0  0  0  0  0  0  0  0  0
    7.6040    0.5890   24.4200 H   0  0  0  0  0  0  0  0  0  0  0  0
    4.0730    2.6960   25.6320 H   0  0  0  0  0  0  0  0  0  0  0  0
    2.7370    0.6070   25.3170 H   0  0  0  0  0  0  0  0  0  0  0  0
    3.8110   -1.4570   24.5500 H   0  0  0  0  0  0  0  0  0  0  0  0
    7.4620   -1.5970   23.5850 H   0  0  0  0  0  0  0  0  0  0  0  0
    7.5350   -3.4040   25.0170 H   0  0  0  0  0  0  0  0  0  0  0  0
    6.4520   -2.4760   26.0230 H   0  0  0  0  0  0  0  0  0  0  0  0
    4.5640   -3.7370   25.3610 H   0  0  0  0  0  0  0  0  0  0  0  0
    5.7580   -4.9470   24.9870 H   0  0  0  0  0  0  0  0  0  0  0  0
    5.5470   -4.5960   22.6560 H   0  0  0  0  0  0  0  0  0  0  0  0
    4.0550   -3.7970   23.0610 H   0  0  0  0  0  0  0  0  0  0  0  0
  1  2  2  0  0  0  0
  2  3  1  0  0  0  0
  2 22  1  0  0  0  0
  3  4  1  0  0  0  0
  3 20  1  0  0  0  0
  3 21  1  0  0  0  0
  4  5  2  0  0  0  0
  4 13  1  0  0  0  0
  5  6  1  0  0  0  0
  5 19  1  0  0  0  0
  6  7  2  0  0  0  0
  7  8  1  0  0  0  0
  7 18  1  0  0  0  0
  8  9  2  0  0  0  0
  8 13  1  0  0  0  0
  9 10  1  0  0  0  0
  9 17  1  0  0  0  0
 10 11  2  0  0  0  0
 10 16  1  0  0  0  0
 11 12  1  0  0  0  0
 11 15  1  0  0  0  0
 12 13  2  0  0  0  0
 12 14  1  0  0  0  0
 22 23  1  0  0  0  0
 22 26  1  0  0  0  0
 23 24  1  0  0  0  0
 23 43  1  0  0  0  0
 23 44  1  0  0  0  0
 24 25  1  0  0  0  0
 24 41  1  0  0  0  0
 24 42  1  0  0  0  0
 25 26  1  0  0  0  0
 25 39  1  0  0  0  0
 25 40  1  0  0  0  0
 26 27  1  0  0  0  0
 26 38  1  6  0  0  0
 27 28  2  0  0  0  0
 27 33  1  0  0  0  0
 28 29  1  0  0  0  0
 28 37  1  0  0  0  0
 29 30  2  0  0  0  0
 29 36  1  0  0  0  0
 30 31  1  0  0  0  0
 30 35  1  0  0  0  0
 31 32  1  0  0  0  0
 31 33  2  0  0  0  0
 33 34  1  0  0  0  0
M  END
>  <MODEL>
       2

$$$$
best_conformers_33.pdb
 OpenBabel02042510453D

 44 47  0  0  1  0  0  0  0  0999 V2000
    8.1870    0.8770   21.1750 O   0  0  0  0  0  0  0  0  0  0  0  0
    7.3970    0.1990   21.8110 C   0  0  0  0  0  0  0  0  0  0  0  0
    6.4770   -0.7960   21.0600 C   0  0  0  0  0  0  0  0  0  0  0  0
    5.8100   -0.1680   19.8520 C   0  0  0  0  0  0  0  0  0  0  0  0
    6.2390   -0.4360   18.5770 C   0  0  0  0  0  0  0  0  0  0  0  0
    5.7560    0.1370   17.4380 N   0  0  0  0  0  0  0  0  0  0  0  0
    4.7870    1.0100   17.5830 C   0  0  0  0  0  0  0  0  0  0  0  0
    4.2270    1.3790   18.8360 C   0  0  0  0  0  0  0  0  0  0  0  0
    3.1810    2.3320   18.9440 C   0  0  0  0  0  0  0  0  0  0  0  0
    2.6590    2.6640   20.1640 C   0  0  0  0  0  0  0  0  0  0  0  0
    3.1700    2.0530   21.3330 C   0  0  0  0  0  0  0  0  0  0  0  0
    4.1830    1.1300   21.2630 C   0  0  0  0  0  0  0  0  0  0  0  0
    4.7450    0.7700   20.0080 C   0  0  0  0  0  0  0  0  0  0  0  0
    4.5670    0.6800   22.1790 H   0  0  0  0  0  0  0  0  0  0  0  0
    2.7490    2.3270   22.2960 H   0  0  0  0  0  0  0  0  0  0  0  0
    1.8570    3.3970   20.2420 H   0  0  0  0  0  0  0  0  0  0  0  0
    2.8070    2.7970   18.0340 H   0  0  0  0  0  0  0  0  0  0  0  0
    4.3980    1.4860   16.6790 H   0  0  0  0  0  0  0  0  0  0  0  0
    7.0310   -1.1690   18.4070 H   0  0  0  0  0  0  0  0  0  0  0  0
    5.7420   -1.2700   21.7200 H   0  0  0  0  0  0  0  0  0  0  0  0
    7.1300   -1.6020   20.7010 H   0  0  0  0  0  0  0  0  0  0  0  0
    7.3200    0.2850   23.1820 N   0  0  0  0  0  0  0  0  0  0  0  0
    6.6710   -0.6580   24.0830 C   0  0  0  0  0  0  0  0  0  0  0  0
    6.8970   -0.1000   25.4960 C   0  0  0  0  0  0  0  0  0  0  0  0
    7.9540    1.0030   25.3610 C   0  0  0  0  0  0  0  0  0  0  0  0
    7.9950    1.3870   23.8730 C   0  0  2  0  0  0  0  0  0  0  0  0
    7.3420    2.7290   23.5930 C   0  0  0  0  0  0  0  0  0  0  0  0
    8.0970    3.8000   23.1170 C   0  0  0  0  0  0  0  0  0  0  0  0
    7.4980    5.0270   22.8490 C   0  0  0  0  0  0  0  0  0  0  0  0
    6.1380    5.2130   23.0580 C   0  0  0  0  0  0  0  0  0  0  0  0
    5.4140    4.1390   23.5500 C   0  0  0  0  0  0  0  0  0  0  0  0
    4.0900    4.2890   23.7490 F   0  0  0  0  0  0  0  0  0  0  0  0
    5.9830    2.9070   23.8280 C   0  0  0  0  0  0  0  0  0  0  0  0
    5.3500    2.1070   24.2080 H   0  0  0  0  0  0  0  0  0  0  0  0
    5.6440    6.1570   22.8450 H   0  0  0  0  0  0  0  0  0  0  0  0
    8.0950    5.8450   22.4610 H   0  0  0  0  0  0  0  0  0  0  0  0
    9.1640    3.6710   22.9500 H   0  0  0  0  0  0  0  0  0  0  0  0
    9.0280    1.4480   23.5270 H   0  0  0  0  0  0  0  0  0  0  0  0
    8.9310    0.6440   25.6930 H   0  0  0  0  0  0  0  0  0  0  0  0
    7.7230    1.8650   25.9920 H   0  0  0  0  0  0  0  0  0  0  0  0
    7.2240   -0.8810   26.1850 H   0  0  0  0  0  0  0  0  0  0  0  0
    5.9680    0.2990   25.9100 H   0  0  0  0  0  0  0  0  0  0  0  0
    7.1200   -1.6500   23.9650 H   0  0  0  0  0  0  0  0  0  0  0  0
    5.6000   -0.7550   23.8700 H   0  0  0  0  0  0  0  0  0  0  0  0
  1  2  2  0  0  0  0
  2  3  1  0  0  0  0
  2 22  1  0  0  0  0
  3  4  1  0  0  0  0
  3 20  1  0  0  0  0
  3 21  1  0  0  0  0
  4  5  2  0  0  0  0
  4 13  1  0  0  0  0
  5  6  1  0  0  0  0
  5 19  1  0  0  0  0
  6  7  2  0  0  0  0
  7  8  1  0  0  0  0
  7 18  1  0  0  0  0
  8  9  2  0  0  0  0
  8 13  1  0  0  0  0
  9 10  1  0  0  0  0
  9 17  1  0  0  0  0
 10 11  2  0  0  0  0
 10 16  1  0  0  0  0
 11 12  1  0  0  0  0
 11 15  1  0  0  0  0
 12 13  2  0  0  0  0
 12 14  1  0  0  0  0
 22 23  1  0  0  0  0
 22 26  1  0  0  0  0
 23 24  1  0  0  0  0
 23 43  1  0  0  0  0
 23 44  1  0  0  0  0
 24 25  1  0  0  0  0
 24 41  1  0  0  0  0
 24 42  1  0  0  0  0
 25 26  1  0  0  0  0
 25 39  1  0  0  0  0
 25 40  1  0  0  0  0
 26 27  1  0  0  0  0
 26 38  1  6  0  0  0
 27 28  2  0  0  0  0
 27 33  1  0  0  0  0
 28 29  1  0  0  0  0
 28 37  1  0  0  0  0
 29 30  2  0  0  0  0
 29 36  1  0  0  0  0
 30 31  1  0  0  0  0
 30 35  1  0  0  0  0
 31 32  1  0  0  0  0
 31 33  2  0  0  0  0
 33 34  1  0  0  0  0
M  END
>  <MODEL>
       3

$$$$
best_conformers_33.pdb
 OpenBabel02042510453D

 44 47  0  0  1  0  0  0  0  0999 V2000
    8.0660    0.9390   21.2470 O   0  0  0  0  0  0  0  0  0  0  0  0
    7.3780    0.1330   21.8560 C   0  0  0  0  0  0  0  0  0  0  0  0
    6.4600   -0.8270   21.0600 C   0  0  0  0  0  0  0  0  0  0  0  0
    5.8110   -0.1730   19.8550 C   0  0  0  0  0  0  0  0  0  0  0  0
    6.2400   -0.4350   18.5770 C   0  0  0  0  0  0  0  0  0  0  0  0
    5.7570    0.1380   17.4370 N   0  0  0  0  0  0  0  0  0  0  0  0
    4.7870    1.0090   17.5820 C   0  0  0  0  0  0  0  0  0  0  0  0
    4.2280    1.3790   18.8370 C   0  0  0  0  0  0  0  0  0  0  0  0
    3.1780    2.3280   18.9430 C   0  0  0  0  0  0  0  0  0  0  0  0
    2.6560    2.6580   20.1630 C   0  0  0  0  0  0  0  0  0  0  0  0
    3.1690    2.0500   21.3340 C   0  0  0  0  0  0  0  0  0  0  0  0
    4.1870    1.1350   21.2610 C   0  0  0  0  0  0  0  0  0  0  0  0
    4.7510    0.7730   20.0090 C   0  0  0  0  0  0  0  0  0  0  0  0
    4.5710    0.6840   22.1740 H   0  0  0  0  0  0  0  0  0  0  0  0
    2.7520    2.3200   22.2980 H   0  0  0  0  0  0  0  0  0  0  0  0
    1.8540    3.3880   20.2450 H   0  0  0  0  0  0  0  0  0  0  0  0
    2.8010    2.7920   18.0320 H   0  0  0  0  0  0  0  0  0  0  0  0
    4.3980    1.4870   16.6790 H   0  0  0  0  0  0  0  0  0  0  0  0
    7.0270   -1.1710   18.4050 H   0  0  0  0  0  0  0  0  0  0  0  0
    5.7060   -1.2990   21.6970 H   0  0  0  0  0  0  0  0  0  0  0  0
    7.0990   -1.6430   20.7020 H   0  0  0  0  0  0  0  0  0  0  0  0
    7.4090    0.0810   23.2260 N   0  0  0  0  0  0  0  0  0  0  0  0
    8.2340    1.0340   23.9720 C   0  0  0  0  0  0  0  0  0  0  0  0
    8.1930    0.5590   25.4280 C   0  0  0  0  0  0  0  0  0  0  0  0
    7.0100   -0.4090   25.5170 C   0  0  0  0  0  0  0  0  0  0  0  0
    6.7570   -0.9020   24.0800 C   0  0  2  0  0  0  0  0  0  0  0  0
    7.2610   -2.3110   23.8480 C   0  0  0  0  0  0  0  0  0  0  0  0
    8.6280   -2.5760   23.7710 C   0  0  0  0  0  0  0  0  0  0  0  0
    9.0830   -3.8720   23.5760 C   0  0  0  0  0  0  0  0  0  0  0  0
    8.1930   -4.9330   23.4740 C   0  0  0  0  0  0  0  0  0  0  0  0
    6.8440   -4.6500   23.5820 C   0  0  0  0  0  0  0  0  0  0  0  0
    5.9650   -5.6620   23.4870 F   0  0  0  0  0  0  0  0  0  0  0  0
    6.3560   -3.3670   23.7740 C   0  0  0  0  0  0  0  0  0  0  0  0
    5.2820   -3.2100   23.8600 H   0  0  0  0  0  0  0  0  0  0  0  0
    8.5200   -5.9570   23.3280 H   0  0  0  0  0  0  0  0  0  0  0  0
   10.1460   -4.0540   23.4980 H   0  0  0  0  0  0  0  0  0  0  0  0
    9.3480   -1.7680   23.8500 H   0  0  0  0  0  0  0  0  0  0  0  0
    5.6800   -0.8890   23.8860 H   0  0  0  0  0  0  0  0  0  0  0  0
    7.2160   -1.2420   26.1920 H   0  0  0  0  0  0  0  0  0  0  0  0
    6.1250    0.0900   25.9200 H   0  0  0  0  0  0  0  0  0  0  0  0
    9.1240    0.0620   25.7130 H   0  0  0  0  0  0  0  0  0  0  0  0
    8.0760    1.3910   26.1240 H   0  0  0  0  0  0  0  0  0  0  0  0
    9.2540    1.0630   23.5820 H   0  0  0  0  0  0  0  0  0  0  0  0
    7.8270    2.0420   23.8600 H   0  0  0  0  0  0  0  0  0  0  0  0
  1  2  2  0  0  0  0
  2  3  1  0  0  0  0
  2 22  1  0  0  0  0
  3  4  1  0  0  0  0
  3 20  1  0  0  0  0
  3 21  1  0  0  0  0
  4  5  2  0  0  0  0
  4 13  1  0  0  0  0
  5  6  1  0  0  0  0
  5 19  1  0  0  0  0
  6  7  2  0  0  0  0
  7  8  1  0  0  0  0
  7 18  1  0  0  0  0
  8  9  2  0  0  0  0
  8 13  1  0  0  0  0
  9 10  1  0  0  0  0
  9 17  1  0  0  0  0
 10 11  2  0  0  0  0
 10 16  1  0  0  0  0
 11 12  1  0  0  0  0
 11 15  1  0  0  0  0
 12 13  2  0  0  0  0
 12 14  1  0  0  0  0
 22 23  1  0  0  0  0
 22 26  1  0  0  0  0
 23 24  1  0  0  0  0
 23 43  1  0  0  0  0
 23 44  1  0  0  0  0
 24 25  1  0  0  0  0
 24 41  1  0  0  0  0
 24 42  1  0  0  0  0
 25 26  1  0  0  0  0
 25 39  1  0  0  0  0
 25 40  1  0  0  0  0
 26 27  1  0  0  0  0
 26 38  1  6  0  0  0
 27 28  2  0  0  0  0
 27 33  1  0  0  0  0
 28 29  1  0  0  0  0
 28 37  1  0  0  0  0
 29 30  2  0  0  0  0
 29 36  1  0  0  0  0
 30 31  1  0  0  0  0
 30 35  1  0  0  0  0
 31 32  1  0  0  0  0
 31 33  2  0  0  0  0
 33 34  1  0  0  0  0
M  END
>  <MODEL>
       4

$$$$
best_conformers_33.pdb
 OpenBabel02042510453D

 44 47  0  0  1  0  0  0  0  0999 V2000
    8.2440    0.8540   21.1030 O   0  0  0  0  0  0  0  0  0  0  0  0
    7.4480    0.2100   21.7650 C   0  0  0  0  0  0  0  0  0  0  0  0
    6.4910   -0.7820   21.0590 C   0  0  0  0  0  0  0  0  0  0  0  0
    5.8120   -0.1650   19.8520 C   0  0  0  0  0  0  0  0  0  0  0  0
    6.2390   -0.4360   18.5770 C   0  0  0  0  0  0  0  0  0  0  0  0
    5.7550    0.1360   17.4370 N   0  0  0  0  0  0  0  0  0  0  0  0
    4.7870    1.0100   17.5830 C   0  0  0  0  0  0  0  0  0  0  0  0
    4.2290    1.3800   18.8350 C   0  0  0  0  0  0  0  0  0  0  0  0
    3.1850    2.3360   18.9440 C   0  0  0  0  0  0  0  0  0  0  0  0
    2.6660    2.6680   20.1650 C   0  0  0  0  0  0  0  0  0  0  0  0
    3.1710    2.0520   21.3330 C   0  0  0  0  0  0  0  0  0  0  0  0
    4.1860    1.1310   21.2610 C   0  0  0  0  0  0  0  0  0  0  0  0
    4.7470    0.7720   20.0070 C   0  0  0  0  0  0  0  0  0  0  0  0
    4.5620    0.6730   22.1740 H   0  0  0  0  0  0  0  0  0  0  0  0
    2.7520    2.3290   22.2980 H   0  0  0  0  0  0  0  0  0  0  0  0
    1.8710    3.4070   20.2450 H   0  0  0  0  0  0  0  0  0  0  0  0
    2.8110    2.8030   18.0350 H   0  0  0  0  0  0  0  0  0  0  0  0
    4.3990    1.4860   16.6790 H   0  0  0  0  0  0  0  0  0  0  0  0
    7.0310   -1.1680   18.4060 H   0  0  0  0  0  0  0  0  0  0  0  0
    5.7600   -1.2220   21.7490 H   0  0  0  0  0  0  0  0  0  0  0  0
    7.1170   -1.6100   20.7050 H   0  0  0  0  0  0  0  0  0  0  0  0
    7.3870    0.3330   23.1340 N   0  0  0  0  0  0  0  0  0  0  0  0
    6.7890   -0.6070   24.0700 C   0  0  0  0  0  0  0  0  0  0  0  0
    7.3350   -0.2020   25.4440 C   0  0  0  0  0  0  0  0  0  0  0  0
    7.8010    1.2470   25.2890 C   0  0  0  0  0  0  0  0  0  0  0  0
    8.0460    1.4680   23.7880 C   0  0  2  0  0  0  0  0  0  0  0  0
    7.5210    2.8080   23.3160 C   0  0  0  0  0  0  0  0  0  0  0  0
    6.1570    3.0870   23.3600 C   0  0  0  0  0  0  0  0  0  0  0  0
    5.6680    4.3060   22.9070 C   0  0  0  0  0  0  0  0  0  0  0  0
    6.5260    5.2800   22.4120 C   0  0  0  0  0  0  0  0  0  0  0  0
    7.8800    4.9950   22.4080 C   0  0  0  0  0  0  0  0  0  0  0  0
    8.7320    5.9370   21.9680 F   0  0  0  0  0  0  0  0  0  0  0  0
    8.3960    3.7830   22.8460 C   0  0  0  0  0  0  0  0  0  0  0  0
    9.4720    3.6210   22.8120 H   0  0  0  0  0  0  0  0  0  0  0  0
    6.1730    6.2370   22.0400 H   0  0  0  0  0  0  0  0  0  0  0  0
    4.6050    4.5130   22.9360 H   0  0  0  0  0  0  0  0  0  0  0  0
    5.4670    2.3460   23.7570 H   0  0  0  0  0  0  0  0  0  0  0  0
    9.1170    1.4300   23.5660 H   0  0  0  0  0  0  0  0  0  0  0  0
    7.0580    1.9500   25.6780 H   0  0  0  0  0  0  0  0  0  0  0  0
    8.7010    1.4330   25.8690 H   0  0  0  0  0  0  0  0  0  0  0  0
    6.5750   -0.2990   26.2220 H   0  0  0  0  0  0  0  0  0  0  0  0
    8.1660   -0.8480   25.7390 H   0  0  0  0  0  0  0  0  0  0  0  0
    7.0840   -1.6270   23.8140 H   0  0  0  0  0  0  0  0  0  0  0  0
    5.6920   -0.5640   24.0470 H   0  0  0  0  0  0  0  0  0  0  0  0
  1  2  2  0  0  0  0
  2  3  1  0  0  0  0
  2 22  1  0  0  0  0
  3  4  1  0  0  0  0
  3 20  1  0  0  0  0
  3 21  1  0  0  0  0
  4  5  2  0  0  0  0
  4 13  1  0  0  0  0
  5  6  1  0  0  0  0
  5 19  1  0  0  0  0
  6  7  2  0  0  0  0
  7  8  1  0  0  0  0
  7 18  1  0  0  0  0
  8  9  2  0  0  0  0
  8 13  1  0  0  0  0
  9 10  1  0  0  0  0
  9 17  1  0  0  0  0
 10 11  2  0  0  0  0
 10 16  1  0  0  0  0
 11 12  1  0  0  0  0
 11 15  1  0  0  0  0
 12 13  2  0  0  0  0
 12 14  1  0  0  0  0
 22 23  1  0  0  0  0
 22 26  1  0  0  0  0
 23 24  1  0  0  0  0
 23 43  1  0  0  0  0
 23 44  1  0  0  0  0
 24 25  1  0  0  0  0
 24 41  1  0  0  0  0
 24 42  1  0  0  0  0
 25 26  1  0  0  0  0
 25 39  1  0  0  0  0
 25 40  1  0  0  0  0
 26 27  1  0  0  0  0
 26 38  1  6  0  0  0
 27 28  2  0  0  0  0
 27 33  1  0  0  0  0
 28 29  1  0  0  0  0
 28 37  1  0  0  0  0
 29 30  2  0  0  0  0
 29 36  1  0  0  0  0
 30 31  1  0  0  0  0
 30 35  1  0  0  0  0
 31 32  1  0  0  0  0
 31 33  2  0  0  0  0
 33 34  1  0  0  0  0
M  END
>  <MODEL>
       5

$$$$
