best_conformers_23.pdb
 OpenBabel02042510453D

 69 74  0  0  1  0  0  0  0  0999 V2000
    6.5240   -0.8610   32.1670 C   0  0  0  0  0  0  0  0  0  0  0  0
    5.7250   -1.3850   30.9810 C   0  0  1  0  0  0  0  0  0  0  0  0
    6.5580   -1.3840   29.7070 C   0  0  0  0  0  0  0  0  0  0  0  0
    5.8440   -1.9630   28.5200 N   0  3  1  0  0  0  0  0  0  0  0  0
    6.7220   -2.0950   27.3100 C   0  0  0  0  0  0  0  0  0  0  0  0
    7.1340   -0.7520   26.6910 C   0  0  0  0  0  0  0  0  0  0  0  0
    7.8890   -0.9170   25.4410 N   0  0  0  0  0  0  0  0  0  0  0  0
    7.3420   -0.3580   24.2070 C   0  0  0  0  0  0  0  0  0  0  0  0
    7.8410   -1.0510   22.9130 C   0  0  2  0  0  0  0  0  0  0  0  0
    7.4460   -0.1460   21.7240 C   0  0  0  0  0  0  0  0  0  0  0  0
    7.8760    0.9610   21.4730 O   0  0  0  0  0  0  0  0  0  0  0  0
    6.4800   -0.7840   20.9720 N   0  0  0  0  0  0  0  0  0  0  0  0
    5.8570   -0.1470   19.8580 C   0  0  0  0  0  0  0  0  0  0  0  0
    6.2630   -0.4470   18.5810 C   0  0  0  0  0  0  0  0  0  0  0  0
    5.7590    0.1190   17.4550 N   0  0  0  0  0  0  0  0  0  0  0  0
    4.7950    0.9990   17.5990 C   0  0  0  0  0  0  0  0  0  0  0  0
    4.2360    1.3710   18.8550 C   0  0  0  0  0  0  0  0  0  0  0  0
    3.1780    2.3170   18.9560 C   0  0  0  0  0  0  0  0  0  0  0  0
    2.6530    2.6430   20.1790 C   0  0  0  0  0  0  0  0  0  0  0  0
    3.1610    2.0350   21.3510 C   0  0  0  0  0  0  0  0  0  0  0  0
    4.1900    1.1240   21.2740 C   0  0  0  0  0  0  0  0  0  0  0  0
    4.7680    0.7760   20.0220 C   0  0  0  0  0  0  0  0  0  0  0  0
    4.5750    0.6630   22.1770 H   0  0  0  0  0  0  0  0  0  0  0  0
    2.7430    2.3020   22.3180 H   0  0  0  0  0  0  0  0  0  0  0  0
    1.8500    3.3730   20.2590 H   0  0  0  0  0  0  0  0  0  0  0  0
    2.8040    2.7810   18.0470 H   0  0  0  0  0  0  0  0  0  0  0  0
    4.4090    1.4640   16.6930 H   0  0  0  0  0  0  0  0  0  0  0  0
    7.0460   -1.1840   18.4140 H   0  0  0  0  0  0  0  0  0  0  0  0
    6.0360   -2.0490   21.5300 C   0  0  0  0  0  0  0  0  0  0  0  0
    7.1260   -2.4050   22.5590 C   0  0  2  0  0  0  0  0  0  0  0  0
    6.5900   -3.2350   23.7310 C   0  0  0  0  0  0  0  0  0  0  0  0
    7.3790   -3.4380   24.4640 H   0  0  0  0  0  0  0  0  0  0  0  0
    5.7810   -2.7130   24.2590 H   0  0  0  0  0  0  0  0  0  0  0  0
    6.1960   -4.1990   23.3820 H   0  0  0  0  0  0  0  0  0  0  0  0
    7.8880   -3.0040   22.0400 H   0  0  0  0  0  0  0  0  0  0  0  0
    5.9410   -2.8060   20.7440 H   0  0  0  0  0  0  0  0  0  0  0  0
    5.0490   -1.9630   22.0170 H   0  0  0  0  0  0  0  0  0  0  0  0
    9.3440   -1.2330   23.0110 C   0  0  0  0  0  0  0  0  0  0  0  0
   10.1060   -1.3770   21.8430 C   0  0  0  0  0  0  0  0  0  0  0  0
   11.4690   -1.6040   21.9300 C   0  0  0  0  0  0  0  0  0  0  0  0
   12.4460   -1.7750   20.5010 Cl  0  0  0  0  0  0  0  0  0  0  0  0
   12.1030   -1.7190   23.1620 C   0  0  0  0  0  0  0  0  0  0  0  0
   11.3490   -1.6070   24.3140 C   0  0  0  0  0  0  0  0  0  0  0  0
    9.9770   -1.3590   24.2520 C   0  0  0  0  0  0  0  0  0  0  0  0
    9.2080   -1.2760   25.5410 C   0  0  0  0  0  0  0  0  0  0  0  0
    9.7280   -1.5260   26.6210 O   0  0  0  0  0  0  0  0  0  0  0  0
   11.8130   -1.7210   25.2840 H   0  0  0  0  0  0  0  0  0  0  0  0
   13.1720   -1.9010   23.1900 H   0  0  0  0  0  0  0  0  0  0  0  0
    9.6420   -1.3030   20.8650 H   0  0  0  0  0  0  0  0  0  0  0  0
    7.5910    0.7090   24.1120 H   0  0  0  0  0  0  0  0  0  0  0  0
    6.2530   -0.4500   24.2680 H   0  0  0  0  0  0  0  0  0  0  0  0
    6.2370   -0.1640   26.4640 H   0  0  0  0  0  0  0  0  0  0  0  0
    7.7410   -0.1740   27.3970 H   0  0  0  0  0  0  0  0  0  0  0  0
    6.1620   -2.6780   26.5690 H   0  0  0  0  0  0  0  0  0  0  0  0
    7.6230   -2.6560   27.5830 H   0  0  0  0  0  0  0  0  0  0  0  0
    5.2450   -3.2820   28.9090 C   0  0  0  0  0  0  0  0  0  0  0  0
    4.4650   -3.1680   30.2140 C   0  0  0  0  0  0  0  0  0  0  0  0
    5.2550   -2.6870   31.2820 O   0  0  0  0  0  0  0  0  0  0  0  0
    4.1040   -4.1520   30.5210 H   0  0  0  0  0  0  0  0  0  0  0  0
    3.6010   -2.4980   30.0520 H   0  0  0  0  0  0  0  0  0  0  0  0
    6.0640   -3.9980   29.0340 H   0  0  0  0  0  0  0  0  0  0  0  0
    4.5940   -3.6170   28.0950 H   0  0  0  0  0  0  0  0  0  0  0  0
    5.0700   -1.3090   28.2780 H   0  0  0  0  0  0  0  0  0  0  0  0
    6.7700   -0.3400   29.4700 H   0  0  0  0  0  0  0  0  0  0  0  0
    7.4830   -1.9510   29.8790 H   0  0  0  0  0  0  0  0  0  0  0  0
    4.8610   -0.7210   30.7920 H   0  0  0  0  0  0  0  0  0  0  0  0
    7.4100   -1.4840   32.3500 H   0  0  0  0  0  0  0  0  0  0  0  0
    5.9070   -0.8600   33.0720 H   0  0  0  0  0  0  0  0  0  0  0  0
    6.8640    0.1680   31.9810 H   0  0  0  0  0  0  0  0  0  0  0  0
  1  2  1  0  0  0  0
  1 67  1  0  0  0  0
  1 68  1  0  0  0  0
  1 69  1  0  0  0  0
  2  3  1  0  0  0  0
  2 58  1  0  0  0  0
  2 66  1  6  0  0  0
  3  4  1  0  0  0  0
  3 64  1  0  0  0  0
  3 65  1  0  0  0  0
  4  5  1  0  0  0  0
  4 56  1  0  0  0  0
  4 63  1  6  0  0  0
  5  6  1  0  0  0  0
  5 54  1  0  0  0  0
  5 55  1  0  0  0  0
  6  7  1  0  0  0  0
  6 52  1  0  0  0  0
  6 53  1  0  0  0  0
  7  8  1  0  0  0  0
  7 45  1  0  0  0  0
  8  9  1  0  0  0  0
  8 50  1  0  0  0  0
  8 51  1  0  0  0  0
  9 10  1  6  0  0  0
  9 30  1  0  0  0  0
  9 38  1  0  0  0  0
 10 11  2  0  0  0  0
 10 12  1  0  0  0  0
 12 13  1  0  0  0  0
 12 29  1  0  0  0  0
 13 14  2  0  0  0  0
 13 22  1  0  0  0  0
 14 15  1  0  0  0  0
 14 28  1  0  0  0  0
 15 16  2  0  0  0  0
 16 17  1  0  0  0  0
 16 27  1  0  0  0  0
 17 18  2  0  0  0  0
 17 22  1  0  0  0  0
 18 19  1  0  0  0  0
 18 26  1  0  0  0  0
 19 20  2  0  0  0  0
 19 25  1  0  0  0  0
 20 21  1  0  0  0  0
 20 24  1  0  0  0  0
 21 22  2  0  0  0  0
 21 23  1  0  0  0  0
 29 30  1  0  0  0  0
 29 36  1  0  0  0  0
 29 37  1  0  0  0  0
 30 31  1  0  0  0  0
 30 35  1  6  0  0  0
 31 32  1  0  0  0  0
 31 33  1  0  0  0  0
 31 34  1  0  0  0  0
 38 39  2  0  0  0  0
 38 44  1  0  0  0  0
 39 40  1  0  0  0  0
 39 49  1  0  0  0  0
 40 41  1  0  0  0  0
 40 42  2  0  0  0  0
 42 43  1  0  0  0  0
 42 48  1  0  0  0  0
 43 44  2  0  0  0  0
 43 47  1  0  0  0  0
 44 45  1  0  0  0  0
 45 46  2  0  0  0  0
 56 57  1  0  0  0  0
 56 61  1  0  0  0  0
 56 62  1  0  0  0  0
 57 58  1  0  0  0  0
 57 59  1  0  0  0  0
 57 60  1  0  0  0  0
M  CHG  1   4   1
M  END
>  <MODEL>
       1

$$$$
best_conformers_23.pdb
 OpenBabel02042510453D

 69 74  0  0  1  0  0  0  0  0999 V2000
    0.2790   -2.3400   27.2010 C   0  0  0  0  0  0  0  0  0  0  0  0
    1.4710   -2.8720   26.4220 C   0  0  1  0  0  0  0  0  0  0  0  0
    2.7960   -2.4560   27.0640 C   0  0  0  0  0  0  0  0  0  0  0  0
    3.9750   -3.0300   26.3110 N   0  3  1  0  0  0  0  0  0  0  0  0
    5.2790   -2.7000   26.9640 C   0  0  0  0  0  0  0  0  0  0  0  0
    5.7910   -1.2860   26.6330 C   0  0  0  0  0  0  0  0  0  0  0  0
    6.8120   -1.2370   25.5830 N   0  0  0  0  0  0  0  0  0  0  0  0
    6.4760   -0.6520   24.2970 C   0  0  0  0  0  0  0  0  0  0  0  0
    7.4100   -1.0870   23.1380 C   0  0  2  0  0  0  0  0  0  0  0  0
    7.1300   -0.1270   21.9650 C   0  0  0  0  0  0  0  0  0  0  0  0
    7.4050    1.0520   21.9110 O   0  0  0  0  0  0  0  0  0  0  0  0
    6.4500   -0.8110   20.9760 N   0  0  0  0  0  0  0  0  0  0  0  0
    5.8460   -0.1560   19.8660 C   0  0  0  0  0  0  0  0  0  0  0  0
    6.2530   -0.4560   18.5900 C   0  0  0  0  0  0  0  0  0  0  0  0
    5.7640    0.1190   17.4630 N   0  0  0  0  0  0  0  0  0  0  0  0
    4.8020    1.0010   17.6040 C   0  0  0  0  0  0  0  0  0  0  0  0
    4.2370    1.3680   18.8570 C   0  0  0  0  0  0  0  0  0  0  0  0
    3.1730    2.3100   18.9520 C   0  0  0  0  0  0  0  0  0  0  0  0
    2.6270    2.6210   20.1680 C   0  0  0  0  0  0  0  0  0  0  0  0
    3.1170    1.9990   21.3410 C   0  0  0  0  0  0  0  0  0  0  0  0
    4.1470    1.0950   21.2720 C   0  0  0  0  0  0  0  0  0  0  0  0
    4.7560    0.7670   20.0260 C   0  0  0  0  0  0  0  0  0  0  0  0
    4.5120    0.6250   22.1800 H   0  0  0  0  0  0  0  0  0  0  0  0
    2.6790    2.2500   22.3040 H   0  0  0  0  0  0  0  0  0  0  0  0
    1.8180    3.3450   20.2430 H   0  0  0  0  0  0  0  0  0  0  0  0
    2.8080    2.7780   18.0410 H   0  0  0  0  0  0  0  0  0  0  0  0
    4.4160    1.4650   16.6970 H   0  0  0  0  0  0  0  0  0  0  0  0
    7.0370   -1.1960   18.4280 H   0  0  0  0  0  0  0  0  0  0  0  0
    6.1580   -2.1940   21.3190 C   0  0  0  0  0  0  0  0  0  0  0  0
    7.0830   -2.4860   22.5110 C   0  0  2  0  0  0  0  0  0  0  0  0
    6.5310   -3.5600   23.4540 C   0  0  0  0  0  0  0  0  0  0  0  0
    6.4180   -4.5190   22.9290 H   0  0  0  0  0  0  0  0  0  0  0  0
    7.2060   -3.7230   24.3010 H   0  0  0  0  0  0  0  0  0  0  0  0
    5.5500   -3.2850   23.8710 H   0  0  0  0  0  0  0  0  0  0  0  0
    8.0420   -2.8440   22.1090 H   0  0  0  0  0  0  0  0  0  0  0  0
    5.1000   -2.3310   21.5940 H   0  0  0  0  0  0  0  0  0  0  0  0
    6.3540   -2.8470   20.4650 H   0  0  0  0  0  0  0  0  0  0  0  0
    8.8490   -1.0210   23.6100 C   0  0  0  0  0  0  0  0  0  0  0  0
    9.8900   -0.8470   22.6920 C   0  0  0  0  0  0  0  0  0  0  0  0
   11.2060   -0.8800   23.1220 C   0  0  0  0  0  0  0  0  0  0  0  0
   12.4880   -0.6330   21.9730 Cl  0  0  0  0  0  0  0  0  0  0  0  0
   11.5300   -1.1160   24.4550 C   0  0  0  0  0  0  0  0  0  0  0  0
   10.5020   -1.3170   25.3580 C   0  0  0  0  0  0  0  0  0  0  0  0
    9.1700   -1.2630   24.9480 C   0  0  0  0  0  0  0  0  0  0  0  0
    8.0900   -1.5450   25.9460 C   0  0  0  0  0  0  0  0  0  0  0  0
    8.3270   -2.0530   27.0340 O   0  0  0  0  0  0  0  0  0  0  0  0
   10.7180   -1.5370   26.3960 H   0  0  0  0  0  0  0  0  0  0  0  0
   12.5730   -1.1470   24.7580 H   0  0  0  0  0  0  0  0  0  0  0  0
    9.6800   -0.6710   21.6430 H   0  0  0  0  0  0  0  0  0  0  0  0
    5.4410   -0.9420   24.0690 H   0  0  0  0  0  0  0  0  0  0  0  0
    6.5280    0.4450   24.3510 H   0  0  0  0  0  0  0  0  0  0  0  0
    6.2240   -0.8360   27.5340 H   0  0  0  0  0  0  0  0  0  0  0  0
    4.9450   -0.6700   26.3100 H   0  0  0  0  0  0  0  0  0  0  0  0
    5.1330   -2.8060   28.0470 H   0  0  0  0  0  0  0  0  0  0  0  0
    6.0230   -3.4370   26.6550 H   0  0  0  0  0  0  0  0  0  0  0  0
    3.7850   -4.5150   26.1790 C   0  0  0  0  0  0  0  0  0  0  0  0
    2.4170   -4.8380   25.5910 C   0  0  0  0  0  0  0  0  0  0  0  0
    1.3670   -4.2880   26.3600 O   0  0  0  0  0  0  0  0  0  0  0  0
    2.3780   -4.4600   24.5550 H   0  0  0  0  0  0  0  0  0  0  0  0
    2.2540   -5.9190   25.5680 H   0  0  0  0  0  0  0  0  0  0  0  0
    4.5840   -4.9140   25.5450 H   0  0  0  0  0  0  0  0  0  0  0  0
    3.8690   -4.9670   27.1740 H   0  0  0  0  0  0  0  0  0  0  0  0
    3.9860   -2.6150   25.3580 H   0  0  0  0  0  0  0  0  0  0  0  0
    2.8730   -1.3650   27.0870 H   0  0  0  0  0  0  0  0  0  0  0  0
    2.8190   -2.8260   28.0980 H   0  0  0  0  0  0  0  0  0  0  0  0
    1.4580   -2.4680   25.3920 H   0  0  0  0  0  0  0  0  0  0  0  0
   -0.6620   -2.6350   26.7240 H   0  0  0  0  0  0  0  0  0  0  0  0
    0.2850   -2.7300   28.2270 H   0  0  0  0  0  0  0  0  0  0  0  0
    0.3150   -1.2430   27.2480 H   0  0  0  0  0  0  0  0  0  0  0  0
  1  2  1  0  0  0  0
  1 67  1  0  0  0  0
  1 68  1  0  0  0  0
  1 69  1  0  0  0  0
  2  3  1  0  0  0  0
  2 58  1  0  0  0  0
  2 66  1  6  0  0  0
  3  4  1  0  0  0  0
  3 64  1  0  0  0  0
  3 65  1  0  0  0  0
  4  5  1  0  0  0  0
  4 56  1  0  0  0  0
  4 63  1  6  0  0  0
  5  6  1  0  0  0  0
  5 54  1  0  0  0  0
  5 55  1  0  0  0  0
  6  7  1  0  0  0  0
  6 52  1  0  0  0  0
  6 53  1  0  0  0  0
  7  8  1  0  0  0  0
  7 45  1  0  0  0  0
  8  9  1  0  0  0  0
  8 50  1  0  0  0  0
  8 51  1  0  0  0  0
  9 10  1  6  0  0  0
  9 30  1  0  0  0  0
  9 38  1  0  0  0  0
 10 11  2  0  0  0  0
 10 12  1  0  0  0  0
 12 13  1  0  0  0  0
 12 29  1  0  0  0  0
 13 14  2  0  0  0  0
 13 22  1  0  0  0  0
 14 15  1  0  0  0  0
 14 28  1  0  0  0  0
 15 16  2  0  0  0  0
 16 17  1  0  0  0  0
 16 27  1  0  0  0  0
 17 18  2  0  0  0  0
 17 22  1  0  0  0  0
 18 19  1  0  0  0  0
 18 26  1  0  0  0  0
 19 20  2  0  0  0  0
 19 25  1  0  0  0  0
 20 21  1  0  0  0  0
 20 24  1  0  0  0  0
 21 22  2  0  0  0  0
 21 23  1  0  0  0  0
 29 30  1  0  0  0  0
 29 36  1  0  0  0  0
 29 37  1  0  0  0  0
 30 31  1  0  0  0  0
 30 35  1  6  0  0  0
 31 32  1  0  0  0  0
 31 33  1  0  0  0  0
 31 34  1  0  0  0  0
 38 39  2  0  0  0  0
 38 44  1  0  0  0  0
 39 40  1  0  0  0  0
 39 49  1  0  0  0  0
 40 41  1  0  0  0  0
 40 42  2  0  0  0  0
 42 43  1  0  0  0  0
 42 48  1  0  0  0  0
 43 44  2  0  0  0  0
 43 47  1  0  0  0  0
 44 45  1  0  0  0  0
 45 46  2  0  0  0  0
 56 57  1  0  0  0  0
 56 61  1  0  0  0  0
 56 62  1  0  0  0  0
 57 58  1  0  0  0  0
 57 59  1  0  0  0  0
 57 60  1  0  0  0  0
M  CHG  1   4   1
M  END
>  <MODEL>
       2

$$$$
best_conformers_23.pdb
 OpenBabel02042510453D

 69 74  0  0  1  0  0  0  0  0999 V2000
    4.2120    3.3240   29.5110 C   0  0  0  0  0  0  0  0  0  0  0  0
    4.3630    2.5130   28.2330 C   0  0  1  0  0  0  0  0  0  0  0  0
    4.7700    1.0730   28.5320 C   0  0  0  0  0  0  0  0  0  0  0  0
    4.8620    0.2530   27.2790 N   0  3  1  0  0  0  0  0  0  0  0  0
    5.2120   -1.1560   27.5960 C   0  0  0  0  0  0  0  0  0  0  0  0
    5.5860   -1.9680   26.3520 C   0  0  0  0  0  0  0  0  0  0  0  0
    6.6460   -1.3860   25.5300 N   0  0  0  0  0  0  0  0  0  0  0  0
    6.3450   -0.7320   24.2710 C   0  0  0  0  0  0  0  0  0  0  0  0
    7.3670   -1.0640   23.1550 C   0  0  2  0  0  0  0  0  0  0  0  0
    7.0760   -0.0950   21.9970 C   0  0  0  0  0  0  0  0  0  0  0  0
    7.2920    1.0990   21.9740 O   0  0  0  0  0  0  0  0  0  0  0  0
    6.4560   -0.7930   20.9790 N   0  0  0  0  0  0  0  0  0  0  0  0
    5.8480   -0.1520   19.8680 C   0  0  0  0  0  0  0  0  0  0  0  0
    6.2560   -0.4570   18.5910 C   0  0  0  0  0  0  0  0  0  0  0  0
    5.7650    0.1170   17.4650 N   0  0  0  0  0  0  0  0  0  0  0  0
    4.8040    1.0000   17.6070 C   0  0  0  0  0  0  0  0  0  0  0  0
    4.2380    1.3670   18.8590 C   0  0  0  0  0  0  0  0  0  0  0  0
    3.1780    2.3120   18.9520 C   0  0  0  0  0  0  0  0  0  0  0  0
    2.6290    2.6250   20.1680 C   0  0  0  0  0  0  0  0  0  0  0  0
    3.1110    1.9980   21.3430 C   0  0  0  0  0  0  0  0  0  0  0  0
    4.1400    1.0890   21.2740 C   0  0  0  0  0  0  0  0  0  0  0  0
    4.7540    0.7670   20.0290 C   0  0  0  0  0  0  0  0  0  0  0  0
    4.4970    0.6200   22.1850 H   0  0  0  0  0  0  0  0  0  0  0  0
    2.6740    2.2510   22.3040 H   0  0  0  0  0  0  0  0  0  0  0  0
    1.8240    3.3520   20.2400 H   0  0  0  0  0  0  0  0  0  0  0  0
    2.8160    2.7810   18.0410 H   0  0  0  0  0  0  0  0  0  0  0  0
    4.4190    1.4620   16.7000 H   0  0  0  0  0  0  0  0  0  0  0  0
    7.0390   -1.1950   18.4290 H   0  0  0  0  0  0  0  0  0  0  0  0
    6.2540   -2.2020   21.2760 C   0  0  0  0  0  0  0  0  0  0  0  0
    7.1620   -2.4680   22.4880 C   0  0  2  0  0  0  0  0  0  0  0  0
    6.6420   -3.6020   23.3800 C   0  0  0  0  0  0  0  0  0  0  0  0
    7.2820   -3.7450   24.2580 H   0  0  0  0  0  0  0  0  0  0  0  0
    5.6290   -3.3890   23.7480 H   0  0  0  0  0  0  0  0  0  0  0  0
    6.6010   -4.5530   22.8300 H   0  0  0  0  0  0  0  0  0  0  0  0
    8.1570   -2.7560   22.1180 H   0  0  0  0  0  0  0  0  0  0  0  0
    6.5210   -2.8090   20.4110 H   0  0  0  0  0  0  0  0  0  0  0  0
    5.1980   -2.4240   21.5040 H   0  0  0  0  0  0  0  0  0  0  0  0
    8.7670   -0.9010   23.7080 C   0  0  0  0  0  0  0  0  0  0  0  0
    9.8390   -0.6620   22.8420 C   0  0  0  0  0  0  0  0  0  0  0  0
   11.1260   -0.5680   23.3430 C   0  0  0  0  0  0  0  0  0  0  0  0
   12.4440   -0.2370   22.2560 Cl  0  0  0  0  0  0  0  0  0  0  0  0
   11.3910   -0.7370   24.6990 C   0  0  0  0  0  0  0  0  0  0  0  0
   10.3340   -1.0100   25.5510 C   0  0  0  0  0  0  0  0  0  0  0  0
    9.0270   -1.0940   25.0690 C   0  0  0  0  0  0  0  0  0  0  0  0
    7.9210   -1.5020   25.9980 C   0  0  0  0  0  0  0  0  0  0  0  0
    8.1260   -1.9680   27.1100 O   0  0  0  0  0  0  0  0  0  0  0  0
   10.5130   -1.1880   26.6030 H   0  0  0  0  0  0  0  0  0  0  0  0
   12.4150   -0.6660   25.0550 H   0  0  0  0  0  0  0  0  0  0  0  0
    9.6720   -0.5310   21.7790 H   0  0  0  0  0  0  0  0  0  0  0  0
    5.3330   -1.0340   23.9650 H   0  0  0  0  0  0  0  0  0  0  0  0
    6.3690    0.3600   24.4020 H   0  0  0  0  0  0  0  0  0  0  0  0
    5.8980   -2.9620   26.6950 H   0  0  0  0  0  0  0  0  0  0  0  0
    4.7020   -2.0820   25.7170 H   0  0  0  0  0  0  0  0  0  0  0  0
    6.0480   -1.1600   28.2990 H   0  0  0  0  0  0  0  0  0  0  0  0
    4.3550   -1.6360   28.0900 H   0  0  0  0  0  0  0  0  0  0  0  0
    3.5730    0.3920   26.4960 C   0  0  0  0  0  0  0  0  0  0  0  0
    3.2260    1.8630   26.3060 C   0  0  0  0  0  0  0  0  0  0  0  0
    3.1250    2.5500   27.5370 O   0  0  0  0  0  0  0  0  0  0  0  0
    2.2530    1.9660   25.8150 H   0  0  0  0  0  0  0  0  0  0  0  0
    3.9940    2.3320   25.6630 H   0  0  0  0  0  0  0  0  0  0  0  0
    2.7690   -0.1080   27.0490 H   0  0  0  0  0  0  0  0  0  0  0  0
    3.6850   -0.0880   25.5210 H   0  0  0  0  0  0  0  0  0  0  0  0
    5.6580    0.5910   26.7000 H   0  0  0  0  0  0  0  0  0  0  0  0
    4.0220    0.6240   29.2000 H   0  0  0  0  0  0  0  0  0  0  0  0
    5.7380    1.0560   29.0460 H   0  0  0  0  0  0  0  0  0  0  0  0
    5.1460    2.9560   27.5890 H   0  0  0  0  0  0  0  0  0  0  0  0
    3.4370    2.8860   30.1550 H   0  0  0  0  0  0  0  0  0  0  0  0
    3.9290    4.3590   29.2860 H   0  0  0  0  0  0  0  0  0  0  0  0
    5.1570    3.3340   30.0700 H   0  0  0  0  0  0  0  0  0  0  0  0
  1  2  1  0  0  0  0
  1 67  1  0  0  0  0
  1 68  1  0  0  0  0
  1 69  1  0  0  0  0
  2  3  1  0  0  0  0
  2 58  1  0  0  0  0
  2 66  1  6  0  0  0
  3  4  1  0  0  0  0
  3 64  1  0  0  0  0
  3 65  1  0  0  0  0
  4  5  1  0  0  0  0
  4 56  1  0  0  0  0
  4 63  1  6  0  0  0
  5  6  1  0  0  0  0
  5 54  1  0  0  0  0
  5 55  1  0  0  0  0
  6  7  1  0  0  0  0
  6 52  1  0  0  0  0
  6 53  1  0  0  0  0
  7  8  1  0  0  0  0
  7 45  1  0  0  0  0
  8  9  1  0  0  0  0
  8 50  1  0  0  0  0
  8 51  1  0  0  0  0
  9 10  1  6  0  0  0
  9 30  1  0  0  0  0
  9 38  1  0  0  0  0
 10 11  2  0  0  0  0
 10 12  1  0  0  0  0
 12 13  1  0  0  0  0
 12 29  1  0  0  0  0
 13 14  2  0  0  0  0
 13 22  1  0  0  0  0
 14 15  1  0  0  0  0
 14 28  1  0  0  0  0
 15 16  2  0  0  0  0
 16 17  1  0  0  0  0
 16 27  1  0  0  0  0
 17 18  2  0  0  0  0
 17 22  1  0  0  0  0
 18 19  1  0  0  0  0
 18 26  1  0  0  0  0
 19 20  2  0  0  0  0
 19 25  1  0  0  0  0
 20 21  1  0  0  0  0
 20 24  1  0  0  0  0
 21 22  2  0  0  0  0
 21 23  1  0  0  0  0
 29 30  1  0  0  0  0
 29 36  1  0  0  0  0
 29 37  1  0  0  0  0
 30 31  1  0  0  0  0
 30 35  1  6  0  0  0
 31 32  1  0  0  0  0
 31 33  1  0  0  0  0
 31 34  1  0  0  0  0
 38 39  2  0  0  0  0
 38 44  1  0  0  0  0
 39 40  1  0  0  0  0
 39 49  1  0  0  0  0
 40 41  1  0  0  0  0
 40 42  2  0  0  0  0
 42 43  1  0  0  0  0
 42 48  1  0  0  0  0
 43 44  2  0  0  0  0
 43 47  1  0  0  0  0
 44 45  1  0  0  0  0
 45 46  2  0  0  0  0
 56 57  1  0  0  0  0
 56 61  1  0  0  0  0
 56 62  1  0  0  0  0
 57 58  1  0  0  0  0
 57 59  1  0  0  0  0
 57 60  1  0  0  0  0
M  CHG  1   4   1
M  END
>  <MODEL>
       3

$$$$
best_conformers_23.pdb
 OpenBabel02042510453D

 69 74  0  0  1  0  0  0  0  0999 V2000
    4.2920   -2.9480   31.7260 C   0  0  0  0  0  0  0  0  0  0  0  0
    3.9180   -3.3380   30.3040 C   0  0  1  0  0  0  0  0  0  0  0  0
    5.0170   -2.9510   29.3120 C   0  0  0  0  0  0  0  0  0  0  0  0
    4.6820   -3.3950   27.9080 N   0  3  1  0  0  0  0  0  0  0  0  0
    5.7860   -3.1380   26.9310 C   0  0  0  0  0  0  0  0  0  0  0  0
    5.9760   -1.6510   26.5980 C   0  0  0  0  0  0  0  0  0  0  0  0
    6.9690   -1.4170   25.5440 N   0  0  0  0  0  0  0  0  0  0  0  0
    6.5590   -0.7860   24.2980 C   0  0  0  0  0  0  0  0  0  0  0  0
    7.4770   -1.1170   23.0950 C   0  0  2  0  0  0  0  0  0  0  0  0
    7.1140   -0.1250   21.9750 C   0  0  0  0  0  0  0  0  0  0  0  0
    7.3220    1.0710   21.9670 O   0  0  0  0  0  0  0  0  0  0  0  0
    6.4530   -0.8050   20.9730 N   0  0  0  0  0  0  0  0  0  0  0  0
    5.8460   -0.1550   19.8660 C   0  0  0  0  0  0  0  0  0  0  0  0
    6.2550   -0.4580   18.5880 C   0  0  0  0  0  0  0  0  0  0  0  0
    5.7660    0.1190   17.4630 N   0  0  0  0  0  0  0  0  0  0  0  0
    4.8030    1.0010   17.6060 C   0  0  0  0  0  0  0  0  0  0  0  0
    4.2390    1.3680   18.8590 C   0  0  0  0  0  0  0  0  0  0  0  0
    3.1790    2.3140   18.9520 C   0  0  0  0  0  0  0  0  0  0  0  0
    2.6320    2.6290   20.1690 C   0  0  0  0  0  0  0  0  0  0  0  0
    3.1180    2.0040   21.3420 C   0  0  0  0  0  0  0  0  0  0  0  0
    4.1460    1.0940   21.2720 C   0  0  0  0  0  0  0  0  0  0  0  0
    4.7550    0.7660   20.0270 C   0  0  0  0  0  0  0  0  0  0  0  0
    4.5080    0.6260   22.1790 H   0  0  0  0  0  0  0  0  0  0  0  0
    2.6840    2.2580   22.3050 H   0  0  0  0  0  0  0  0  0  0  0  0
    1.8280    3.3580   20.2430 H   0  0  0  0  0  0  0  0  0  0  0  0
    2.8160    2.7820   18.0410 H   0  0  0  0  0  0  0  0  0  0  0  0
    4.4180    1.4630   16.6990 H   0  0  0  0  0  0  0  0  0  0  0  0
    7.0390   -1.1950   18.4240 H   0  0  0  0  0  0  0  0  0  0  0  0
    6.2550   -2.2160   21.2550 C   0  0  0  0  0  0  0  0  0  0  0  0
    7.2110   -2.5090   22.4240 C   0  0  2  0  0  0  0  0  0  0  0  0
    6.7120   -3.6410   23.3300 C   0  0  0  0  0  0  0  0  0  0  0  0
    7.3720   -3.7820   24.1940 H   0  0  0  0  0  0  0  0  0  0  0  0
    5.7100   -3.4270   23.7220 H   0  0  0  0  0  0  0  0  0  0  0  0
    6.6620   -4.5920   22.7830 H   0  0  0  0  0  0  0  0  0  0  0  0
    8.1820   -2.8100   22.0070 H   0  0  0  0  0  0  0  0  0  0  0  0
    6.4790   -2.8060   20.3660 H   0  0  0  0  0  0  0  0  0  0  0  0
    5.2090   -2.4380   21.5220 H   0  0  0  0  0  0  0  0  0  0  0  0
    8.9240   -0.9770   23.5190 C   0  0  0  0  0  0  0  0  0  0  0  0
    9.9230   -0.7540   22.5670 C   0  0  0  0  0  0  0  0  0  0  0  0
   11.2490   -0.7020   22.9580 C   0  0  0  0  0  0  0  0  0  0  0  0
   12.4840   -0.3940   21.7760 Cl  0  0  0  0  0  0  0  0  0  0  0  0
   11.6310   -0.8980   24.2820 C   0  0  0  0  0  0  0  0  0  0  0  0
   10.6460   -1.1470   25.2180 C   0  0  0  0  0  0  0  0  0  0  0  0
    9.3020   -1.1780   24.8450 C   0  0  0  0  0  0  0  0  0  0  0  0
    8.2860   -1.5390   25.8800 C   0  0  0  0  0  0  0  0  0  0  0  0
    8.6280   -1.9610   26.9740 O   0  0  0  0  0  0  0  0  0  0  0  0
   10.9030   -1.3430   26.2510 H   0  0  0  0  0  0  0  0  0  0  0  0
   12.6830   -0.8600   24.5470 H   0  0  0  0  0  0  0  0  0  0  0  0
    9.6630   -0.6050   21.5260 H   0  0  0  0  0  0  0  0  0  0  0  0
    6.5530    0.3100   24.3950 H   0  0  0  0  0  0  0  0  0  0  0  0
    5.5390   -1.1290   24.0850 H   0  0  0  0  0  0  0  0  0  0  0  0
    5.0230   -1.2380   26.2510 H   0  0  0  0  0  0  0  0  0  0  0  0
    6.2700   -1.1050   27.5030 H   0  0  0  0  0  0  0  0  0  0  0  0
    6.7170   -3.5400   27.3450 H   0  0  0  0  0  0  0  0  0  0  0  0
    5.5480   -3.6910   26.0150 H   0  0  0  0  0  0  0  0  0  0  0  0
    4.3060   -4.8540   27.9280 C   0  0  0  0  0  0  0  0  0  0  0  0
    3.2500   -5.1370   28.9880 C   0  0  0  0  0  0  0  0  0  0  0  0
    3.6760   -4.7370   30.2740 O   0  0  0  0  0  0  0  0  0  0  0  0
    3.0460   -6.2100   29.0510 H   0  0  0  0  0  0  0  0  0  0  0  0
    2.3150   -4.6160   28.7090 H   0  0  0  0  0  0  0  0  0  0  0  0
    5.2070   -5.4340   28.1520 H   0  0  0  0  0  0  0  0  0  0  0  0
    3.9420   -5.1380   26.9350 H   0  0  0  0  0  0  0  0  0  0  0  0
    3.8460   -2.8630   27.5850 H   0  0  0  0  0  0  0  0  0  0  0  0
    5.9590   -3.4230   29.6150 H   0  0  0  0  0  0  0  0  0  0  0  0
    5.1480   -1.8650   29.3280 H   0  0  0  0  0  0  0  0  0  0  0  0
    2.9920   -2.8150   29.9980 H   0  0  0  0  0  0  0  0  0  0  0  0
    3.4990   -3.2230   32.4300 H   0  0  0  0  0  0  0  0  0  0  0  0
    5.2190   -3.4500   32.0340 H   0  0  0  0  0  0  0  0  0  0  0  0
    4.4600   -1.8650   31.7910 H   0  0  0  0  0  0  0  0  0  0  0  0
  1  2  1  0  0  0  0
  1 67  1  0  0  0  0
  1 68  1  0  0  0  0
  1 69  1  0  0  0  0
  2  3  1  0  0  0  0
  2 58  1  0  0  0  0
  2 66  1  6  0  0  0
  3  4  1  0  0  0  0
  3 64  1  0  0  0  0
  3 65  1  0  0  0  0
  4  5  1  0  0  0  0
  4 56  1  0  0  0  0
  4 63  1  6  0  0  0
  5  6  1  0  0  0  0
  5 54  1  0  0  0  0
  5 55  1  0  0  0  0
  6  7  1  0  0  0  0
  6 52  1  0  0  0  0
  6 53  1  0  0  0  0
  7  8  1  0  0  0  0
  7 45  1  0  0  0  0
  8  9  1  0  0  0  0
  8 50  1  0  0  0  0
  8 51  1  0  0  0  0
  9 10  1  6  0  0  0
  9 30  1  0  0  0  0
  9 38  1  0  0  0  0
 10 11  2  0  0  0  0
 10 12  1  0  0  0  0
 12 13  1  0  0  0  0
 12 29  1  0  0  0  0
 13 14  2  0  0  0  0
 13 22  1  0  0  0  0
 14 15  1  0  0  0  0
 14 28  1  0  0  0  0
 15 16  2  0  0  0  0
 16 17  1  0  0  0  0
 16 27  1  0  0  0  0
 17 18  2  0  0  0  0
 17 22  1  0  0  0  0
 18 19  1  0  0  0  0
 18 26  1  0  0  0  0
 19 20  2  0  0  0  0
 19 25  1  0  0  0  0
 20 21  1  0  0  0  0
 20 24  1  0  0  0  0
 21 22  2  0  0  0  0
 21 23  1  0  0  0  0
 29 30  1  0  0  0  0
 29 36  1  0  0  0  0
 29 37  1  0  0  0  0
 30 31  1  0  0  0  0
 30 35  1  6  0  0  0
 31 32  1  0  0  0  0
 31 33  1  0  0  0  0
 31 34  1  0  0  0  0
 38 39  2  0  0  0  0
 38 44  1  0  0  0  0
 39 40  1  0  0  0  0
 39 49  1  0  0  0  0
 40 41  1  0  0  0  0
 40 42  2  0  0  0  0
 42 43  1  0  0  0  0
 42 48  1  0  0  0  0
 43 44  2  0  0  0  0
 43 47  1  0  0  0  0
 44 45  1  0  0  0  0
 45 46  2  0  0  0  0
 56 57  1  0  0  0  0
 56 61  1  0  0  0  0
 56 62  1  0  0  0  0
 57 58  1  0  0  0  0
 57 59  1  0  0  0  0
 57 60  1  0  0  0  0
M  CHG  1   4   1
M  END
>  <MODEL>
       4

$$$$
