best_conformers_52.pdb
 OpenBabel02042510453D

 66 71  0  0  1  0  0  0  0  0999 V2000
    5.0400   -8.2290   25.4650 C   0  0  0  0  0  0  0  0  0  0  0  0
    4.5120   -7.0490   24.8110 N   0  0  0  0  0  0  0  0  0  0  0  0
    5.1820   -6.5470   23.7500 C   0  0  0  0  0  0  0  0  0  0  0  0
    6.2000   -7.0570   23.3090 O   0  0  0  0  0  0  0  0  0  0  0  0
    4.5810   -5.2780   23.1310 C   0  0  0  0  0  0  0  0  0  0  0  0
    5.1600   -4.0630   23.6620 N   0  0  0  0  0  0  0  0  0  0  0  0
    6.4830   -3.6530   23.2210 C   0  0  0  0  0  0  0  0  0  0  0  0
    6.5580   -2.1260   22.9820 C   0  0  2  0  0  0  0  0  0  0  0  0
    5.6910   -1.7450   21.7590 C   0  0  0  0  0  0  0  0  0  0  0  0
    4.5620   -2.1230   21.5280 O   0  0  0  0  0  0  0  0  0  0  0  0
    6.3990   -0.8720   20.9660 N   0  0  0  0  0  0  0  0  0  0  0  0
    5.8040   -0.2090   19.8590 C   0  0  0  0  0  0  0  0  0  0  0  0
    6.2570   -0.4590   18.5880 C   0  0  0  0  0  0  0  0  0  0  0  0
    5.7810    0.1300   17.4620 N   0  0  0  0  0  0  0  0  0  0  0  0
    4.8070    0.9990   17.6080 C   0  0  0  0  0  0  0  0  0  0  0  0
    4.2390    1.3620   18.8640 C   0  0  0  0  0  0  0  0  0  0  0  0
    3.1920    2.3210   18.9570 C   0  0  0  0  0  0  0  0  0  0  0  0
    2.6790    2.6700   20.1760 C   0  0  0  0  0  0  0  0  0  0  0  0
    3.1990    2.0850   21.3540 C   0  0  0  0  0  0  0  0  0  0  0  0
    4.2130    1.1620   21.2930 C   0  0  0  0  0  0  0  0  0  0  0  0
    4.7520    0.7550   20.0350 C   0  0  0  0  0  0  0  0  0  0  0  0
    4.6020    0.7270   22.2130 H   0  0  0  0  0  0  0  0  0  0  0  0
    2.7850    2.3700   22.3160 H   0  0  0  0  0  0  0  0  0  0  0  0
    1.8780    3.4010   20.2480 H   0  0  0  0  0  0  0  0  0  0  0  0
    2.8180    2.7750   18.0410 H   0  0  0  0  0  0  0  0  0  0  0  0
    4.4150    1.4600   16.7010 H   0  0  0  0  0  0  0  0  0  0  0  0
    7.0490   -1.1900   18.4280 H   0  0  0  0  0  0  0  0  0  0  0  0
    7.7570   -0.6200   21.4090 C   0  0  0  0  0  0  0  0  0  0  0  0
    7.9820   -1.5920   22.5940 C   0  0  2  0  0  0  0  0  0  0  0  0
    9.0590   -2.6490   22.2220 C   0  0  0  0  0  0  0  0  0  0  0  0
   10.3630   -2.0740   21.9610 N   0  0  0  0  0  0  0  0  0  0  0  0
   11.2130   -1.5880   22.8980 C   0  0  0  0  0  0  0  0  0  0  0  0
   10.9830   -1.7410   24.2790 C   0  0  0  0  0  0  0  0  0  0  0  0
   11.9220   -1.1800   25.1240 C   0  0  0  0  0  0  0  0  0  0  0  0
   12.9970   -0.5140   24.6820 N   0  0  0  0  0  0  0  0  0  0  0  0
   13.1160   -0.4460   23.3590 C   0  0  0  0  0  0  0  0  0  0  0  0
   12.3010   -0.9490   22.4350 N   0  0  0  0  0  0  0  0  0  0  0  0
   13.9940    0.0920   22.9920 H   0  0  0  0  0  0  0  0  0  0  0  0
   11.8140   -1.2600   26.2110 H   0  0  0  0  0  0  0  0  0  0  0  0
   10.1090   -2.2690   24.6510 H   0  0  0  0  0  0  0  0  0  0  0  0
   10.7110   -1.9970   21.0180 H   0  0  0  0  0  0  0  0  0  0  0  0
    8.7720   -3.1740   21.3080 H   0  0  0  0  0  0  0  0  0  0  0  0
    9.1540   -3.3940   23.0240 H   0  0  0  0  0  0  0  0  0  0  0  0
    8.3980   -1.0580   23.4580 H   0  0  0  0  0  0  0  0  0  0  0  0
    7.8840    0.4300   21.7080 H   0  0  0  0  0  0  0  0  0  0  0  0
    8.4540   -0.7970   20.5810 H   0  0  0  0  0  0  0  0  0  0  0  0
    5.9710   -1.4410   24.2200 C   0  0  0  0  0  0  0  0  0  0  0  0
    6.2590   -0.0940   24.4850 C   0  0  0  0  0  0  0  0  0  0  0  0
    5.6950    0.5360   25.5810 C   0  0  0  0  0  0  0  0  0  0  0  0
    6.0720    2.2060   25.9020 Cl  0  0  0  0  0  0  0  0  0  0  0  0
    4.8230   -0.1320   26.4360 C   0  0  0  0  0  0  0  0  0  0  0  0
    4.4980   -1.4450   26.1540 C   0  0  0  0  0  0  0  0  0  0  0  0
    5.0450   -2.0940   25.0480 C   0  0  0  0  0  0  0  0  0  0  0  0
    4.5590   -3.4790   24.7330 C   0  0  0  0  0  0  0  0  0  0  0  0
    3.6640   -4.0450   25.3610 O   0  0  0  0  0  0  0  0  0  0  0  0
    3.7950   -1.9980   26.7660 H   0  0  0  0  0  0  0  0  0  0  0  0
    4.4000    0.3880   27.2870 H   0  0  0  0  0  0  0  0  0  0  0  0
    6.9020    0.4990   23.8400 H   0  0  0  0  0  0  0  0  0  0  0  0
    7.2250   -3.9350   23.9830 H   0  0  0  0  0  0  0  0  0  0  0  0
    6.6950   -4.2000   22.3000 H   0  0  0  0  0  0  0  0  0  0  0  0
    3.4990   -5.2280   23.2810 H   0  0  0  0  0  0  0  0  0  0  0  0
    4.7930   -5.3090   22.0580 H   0  0  0  0  0  0  0  0  0  0  0  0
    3.6760   -6.5850   25.1360 H   0  0  0  0  0  0  0  0  0  0  0  0
    4.3750   -8.5210   26.2780 H   0  0  0  0  0  0  0  0  0  0  0  0
    6.0450   -8.0420   25.8630 H   0  0  0  0  0  0  0  0  0  0  0  0
    5.1210   -9.0310   24.7320 H   0  0  0  0  0  0  0  0  0  0  0  0
  1  2  1  0  0  0  0
  1 64  1  0  0  0  0
  1 65  1  0  0  0  0
  1 66  1  0  0  0  0
  2  3  1  0  0  0  0
  2 63  1  0  0  0  0
  3  4  2  0  0  0  0
  3  5  1  0  0  0  0
  5  6  1  0  0  0  0
  5 61  1  0  0  0  0
  5 62  1  0  0  0  0
  6  7  1  0  0  0  0
  6 54  1  0  0  0  0
  7  8  1  0  0  0  0
  7 59  1  0  0  0  0
  7 60  1  0  0  0  0
  8  9  1  6  0  0  0
  8 29  1  0  0  0  0
  8 47  1  0  0  0  0
  9 10  2  0  0  0  0
  9 11  1  0  0  0  0
 11 12  1  0  0  0  0
 11 28  1  0  0  0  0
 12 13  2  0  0  0  0
 12 21  1  0  0  0  0
 13 14  1  0  0  0  0
 13 27  1  0  0  0  0
 14 15  2  0  0  0  0
 15 16  1  0  0  0  0
 15 26  1  0  0  0  0
 16 17  2  0  0  0  0
 16 21  1  0  0  0  0
 17 18  1  0  0  0  0
 17 25  1  0  0  0  0
 18 19  2  0  0  0  0
 18 24  1  0  0  0  0
 19 20  1  0  0  0  0
 19 23  1  0  0  0  0
 20 21  2  0  0  0  0
 20 22  1  0  0  0  0
 28 29  1  0  0  0  0
 28 45  1  0  0  0  0
 28 46  1  0  0  0  0
 29 30  1  0  0  0  0
 29 44  1  1  0  0  0
 30 31  1  0  0  0  0
 30 42  1  0  0  0  0
 30 43  1  0  0  0  0
 31 32  1  0  0  0  0
 31 41  1  0  0  0  0
 32 33  2  0  0  0  0
 32 37  1  0  0  0  0
 33 34  1  0  0  0  0
 33 40  1  0  0  0  0
 34 35  2  0  0  0  0
 34 39  1  0  0  0  0
 35 36  1  0  0  0  0
 36 37  2  0  0  0  0
 36 38  1  0  0  0  0
 47 48  2  0  0  0  0
 47 53  1  0  0  0  0
 48 49  1  0  0  0  0
 48 58  1  0  0  0  0
 49 50  1  0  0  0  0
 49 51  2  0  0  0  0
 51 52  1  0  0  0  0
 51 57  1  0  0  0  0
 52 53  2  0  0  0  0
 52 56  1  0  0  0  0
 53 54  1  0  0  0  0
 54 55  2  0  0  0  0
M  END
>  <MODEL>
       1

$$$$
best_conformers_52.pdb
 OpenBabel02042510453D

 66 71  0  0  1  0  0  0  0  0999 V2000
    5.0290   -8.2370   25.4460 C   0  0  0  0  0  0  0  0  0  0  0  0
    4.5050   -7.0510   24.8020 N   0  0  0  0  0  0  0  0  0  0  0  0
    5.1680   -6.5500   23.7370 C   0  0  0  0  0  0  0  0  0  0  0  0
    6.1820   -7.0630   23.2890 O   0  0  0  0  0  0  0  0  0  0  0  0
    4.5670   -5.2800   23.1230 C   0  0  0  0  0  0  0  0  0  0  0  0
    5.1470   -4.0670   23.6580 N   0  0  0  0  0  0  0  0  0  0  0  0
    6.4680   -3.6600   23.2160 C   0  0  0  0  0  0  0  0  0  0  0  0
    6.5440   -2.1310   22.9790 C   0  0  2  0  0  0  0  0  0  0  0  0
    5.6800   -1.7460   21.7560 C   0  0  0  0  0  0  0  0  0  0  0  0
    4.5520   -2.1230   21.5220 O   0  0  0  0  0  0  0  0  0  0  0  0
    6.3920   -0.8740   20.9650 N   0  0  0  0  0  0  0  0  0  0  0  0
    5.8020   -0.2090   19.8570 C   0  0  0  0  0  0  0  0  0  0  0  0
    6.2570   -0.4590   18.5870 C   0  0  0  0  0  0  0  0  0  0  0  0
    5.7810    0.1300   17.4610 N   0  0  0  0  0  0  0  0  0  0  0  0
    4.8070    1.0000   17.6080 C   0  0  0  0  0  0  0  0  0  0  0  0
    4.2390    1.3620   18.8640 C   0  0  0  0  0  0  0  0  0  0  0  0
    3.1910    2.3220   18.9570 C   0  0  0  0  0  0  0  0  0  0  0  0
    2.6780    2.6690   20.1750 C   0  0  0  0  0  0  0  0  0  0  0  0
    3.1990    2.0850   21.3530 C   0  0  0  0  0  0  0  0  0  0  0  0
    4.2120    1.1620   21.2920 C   0  0  0  0  0  0  0  0  0  0  0  0
    4.7510    0.7550   20.0340 C   0  0  0  0  0  0  0  0  0  0  0  0
    4.6020    0.7270   22.2120 H   0  0  0  0  0  0  0  0  0  0  0  0
    2.7840    2.3700   22.3160 H   0  0  0  0  0  0  0  0  0  0  0  0
    1.8770    3.4010   20.2480 H   0  0  0  0  0  0  0  0  0  0  0  0
    2.8170    2.7750   18.0400 H   0  0  0  0  0  0  0  0  0  0  0  0
    4.4150    1.4600   16.7000 H   0  0  0  0  0  0  0  0  0  0  0  0
    7.0480   -1.1900   18.4270 H   0  0  0  0  0  0  0  0  0  0  0  0
    7.7510   -0.6290   21.4090 C   0  0  0  0  0  0  0  0  0  0  0  0
    7.9680   -1.6050   22.5920 C   0  0  2  0  0  0  0  0  0  0  0  0
    9.0380   -2.6720   22.2350 C   0  0  0  0  0  0  0  0  0  0  0  0
   10.3410   -2.0900   21.9650 N   0  0  0  0  0  0  0  0  0  0  0  0
   11.1910   -1.6250   22.9130 C   0  0  0  0  0  0  0  0  0  0  0  0
   12.4080   -1.0030   22.5390 C   0  0  0  0  0  0  0  0  0  0  0  0
   13.1970   -0.5350   23.5640 C   0  0  0  0  0  0  0  0  0  0  0  0
   12.8650   -0.6580   24.8620 N   0  0  0  0  0  0  0  0  0  0  0  0
   11.7140   -1.2720   25.0920 C   0  0  0  0  0  0  0  0  0  0  0  0
   10.8430   -1.7570   24.2000 N   0  0  0  0  0  0  0  0  0  0  0  0
   11.4310   -1.3940   26.1410 H   0  0  0  0  0  0  0  0  0  0  0  0
   14.1460   -0.0290   23.3670 H   0  0  0  0  0  0  0  0  0  0  0  0
   12.6930   -0.8770   21.4940 H   0  0  0  0  0  0  0  0  0  0  0  0
   10.6810   -2.0680   21.0180 H   0  0  0  0  0  0  0  0  0  0  0  0
    9.1380   -3.3860   23.0630 H   0  0  0  0  0  0  0  0  0  0  0  0
    8.7450   -3.2110   21.3300 H   0  0  0  0  0  0  0  0  0  0  0  0
    8.3970   -1.0860   23.4550 H   0  0  0  0  0  0  0  0  0  0  0  0
    7.8860    0.4210   21.7100 H   0  0  0  0  0  0  0  0  0  0  0  0
    8.4480   -0.8070   20.5820 H   0  0  0  0  0  0  0  0  0  0  0  0
    5.9620   -1.4460   24.2180 C   0  0  0  0  0  0  0  0  0  0  0  0
    6.2540   -0.1010   24.4840 C   0  0  0  0  0  0  0  0  0  0  0  0
    5.6940    0.5300   25.5820 C   0  0  0  0  0  0  0  0  0  0  0  0
    6.0740    2.1990   25.9030 Cl  0  0  0  0  0  0  0  0  0  0  0  0
    4.8220   -0.1390   26.4370 C   0  0  0  0  0  0  0  0  0  0  0  0
    4.4950   -1.4510   26.1550 C   0  0  0  0  0  0  0  0  0  0  0  0
    5.0380   -2.1010   25.0480 C   0  0  0  0  0  0  0  0  0  0  0  0
    4.5500   -3.4850   24.7320 C   0  0  0  0  0  0  0  0  0  0  0  0
    3.6560   -4.0510   25.3610 O   0  0  0  0  0  0  0  0  0  0  0  0
    3.7920   -2.0040   26.7680 H   0  0  0  0  0  0  0  0  0  0  0  0
    4.4000    0.3810   27.2890 H   0  0  0  0  0  0  0  0  0  0  0  0
    6.9020    0.4890   23.8420 H   0  0  0  0  0  0  0  0  0  0  0  0
    7.2110   -3.9450   23.9760 H   0  0  0  0  0  0  0  0  0  0  0  0
    6.6790   -4.2050   22.2940 H   0  0  0  0  0  0  0  0  0  0  0  0
    4.7760   -5.3070   22.0500 H   0  0  0  0  0  0  0  0  0  0  0  0
    3.4850   -5.2290   23.2770 H   0  0  0  0  0  0  0  0  0  0  0  0
    3.6690   -6.5870   25.1300 H   0  0  0  0  0  0  0  0  0  0  0  0
    5.1000   -9.0350   24.7070 H   0  0  0  0  0  0  0  0  0  0  0  0
    6.0380   -8.0570   25.8370 H   0  0  0  0  0  0  0  0  0  0  0  0
    4.3690   -8.5290   26.2620 H   0  0  0  0  0  0  0  0  0  0  0  0
  1  2  1  0  0  0  0
  1 64  1  0  0  0  0
  1 65  1  0  0  0  0
  1 66  1  0  0  0  0
  2  3  1  0  0  0  0
  2 63  1  0  0  0  0
  3  4  2  0  0  0  0
  3  5  1  0  0  0  0
  5  6  1  0  0  0  0
  5 61  1  0  0  0  0
  5 62  1  0  0  0  0
  6  7  1  0  0  0  0
  6 54  1  0  0  0  0
  7  8  1  0  0  0  0
  7 59  1  0  0  0  0
  7 60  1  0  0  0  0
  8  9  1  6  0  0  0
  8 29  1  0  0  0  0
  8 47  1  0  0  0  0
  9 10  2  0  0  0  0
  9 11  1  0  0  0  0
 11 12  1  0  0  0  0
 11 28  1  0  0  0  0
 12 13  2  0  0  0  0
 12 21  1  0  0  0  0
 13 14  1  0  0  0  0
 13 27  1  0  0  0  0
 14 15  2  0  0  0  0
 15 16  1  0  0  0  0
 15 26  1  0  0  0  0
 16 17  2  0  0  0  0
 16 21  1  0  0  0  0
 17 18  1  0  0  0  0
 17 25  1  0  0  0  0
 18 19  2  0  0  0  0
 18 24  1  0  0  0  0
 19 20  1  0  0  0  0
 19 23  1  0  0  0  0
 20 21  2  0  0  0  0
 20 22  1  0  0  0  0
 28 29  1  0  0  0  0
 28 45  1  0  0  0  0
 28 46  1  0  0  0  0
 29 30  1  0  0  0  0
 29 44  1  1  0  0  0
 30 31  1  0  0  0  0
 30 42  1  0  0  0  0
 30 43  1  0  0  0  0
 31 32  1  0  0  0  0
 31 41  1  0  0  0  0
 32 33  2  0  0  0  0
 32 37  1  0  0  0  0
 33 34  1  0  0  0  0
 33 40  1  0  0  0  0
 34 35  2  0  0  0  0
 34 39  1  0  0  0  0
 35 36  1  0  0  0  0
 36 37  2  0  0  0  0
 36 38  1  0  0  0  0
 47 48  2  0  0  0  0
 47 53  1  0  0  0  0
 48 49  1  0  0  0  0
 48 58  1  0  0  0  0
 49 50  1  0  0  0  0
 49 51  2  0  0  0  0
 51 52  1  0  0  0  0
 51 57  1  0  0  0  0
 52 53  2  0  0  0  0
 52 56  1  0  0  0  0
 53 54  1  0  0  0  0
 54 55  2  0  0  0  0
M  END
>  <MODEL>
       2

$$$$
best_conformers_52.pdb
 OpenBabel02042510453D

 66 71  0  0  1  0  0  0  0  0999 V2000
    5.6880   -0.1390   29.6970 C   0  0  0  0  0  0  0  0  0  0  0  0
    6.0270   -1.1250   28.6930 N   0  0  0  0  0  0  0  0  0  0  0  0
    5.5460   -0.9870   27.4330 C   0  0  0  0  0  0  0  0  0  0  0  0
    4.7560   -0.1090   27.1160 O   0  0  0  0  0  0  0  0  0  0  0  0
    6.0230   -2.0250   26.4250 C   0  0  0  0  0  0  0  0  0  0  0  0
    7.0060   -1.5060   25.4950 N   0  0  0  0  0  0  0  0  0  0  0  0
    6.5780   -0.8220   24.2880 C   0  0  0  0  0  0  0  0  0  0  0  0
    7.5090   -1.0930   23.0790 C   0  0  2  0  0  0  0  0  0  0  0  0
    7.0950   -0.1060   21.9740 C   0  0  0  0  0  0  0  0  0  0  0  0
    7.2710    1.0950   21.9650 O   0  0  0  0  0  0  0  0  0  0  0  0
    6.4410   -0.8000   20.9840 N   0  0  0  0  0  0  0  0  0  0  0  0
    5.8390   -0.1630   19.8730 C   0  0  0  0  0  0  0  0  0  0  0  0
    6.2680   -0.4630   18.6020 C   0  0  0  0  0  0  0  0  0  0  0  0
    5.7880    0.1120   17.4720 N   0  0  0  0  0  0  0  0  0  0  0  0
    4.8200    0.9870   17.6160 C   0  0  0  0  0  0  0  0  0  0  0  0
    4.2530    1.3580   18.8680 C   0  0  0  0  0  0  0  0  0  0  0  0
    3.1930    2.3000   18.9540 C   0  0  0  0  0  0  0  0  0  0  0  0
    2.6370    2.6150   20.1630 C   0  0  0  0  0  0  0  0  0  0  0  0
    3.1140    1.9980   21.3420 C   0  0  0  0  0  0  0  0  0  0  0  0
    4.1410    1.0920   21.2870 C   0  0  0  0  0  0  0  0  0  0  0  0
    4.7580    0.7620   20.0430 C   0  0  0  0  0  0  0  0  0  0  0  0
    4.4940    0.6310   22.2040 H   0  0  0  0  0  0  0  0  0  0  0  0
    2.6680    2.2510   22.2990 H   0  0  0  0  0  0  0  0  0  0  0  0
    1.8340    3.3460   20.2280 H   0  0  0  0  0  0  0  0  0  0  0  0
    2.8390    2.7640   18.0390 H   0  0  0  0  0  0  0  0  0  0  0  0
    4.4270    1.4460   16.7090 H   0  0  0  0  0  0  0  0  0  0  0  0
    7.0630   -1.1950   18.4540 H   0  0  0  0  0  0  0  0  0  0  0  0
    6.3060   -2.2190   21.2490 C   0  0  0  0  0  0  0  0  0  0  0  0
    7.3090   -2.4830   22.3790 C   0  0  2  0  0  0  0  0  0  0  0  0
    6.9050   -3.6340   23.3050 C   0  0  0  0  0  0  0  0  0  0  0  0
    6.8650   -4.8980   22.6090 N   0  0  0  0  0  0  0  0  0  0  0  0
    6.6400   -6.0720   23.2440 C   0  0  0  0  0  0  0  0  0  0  0  0
    6.1820   -6.1460   24.5780 C   0  0  0  0  0  0  0  0  0  0  0  0
    5.9310   -7.4220   25.0420 C   0  0  0  0  0  0  0  0  0  0  0  0
    6.1690   -8.5340   24.3350 N   0  0  0  0  0  0  0  0  0  0  0  0
    6.6550   -8.3300   23.1160 C   0  0  0  0  0  0  0  0  0  0  0  0
    6.8820   -7.1720   22.5140 N   0  0  0  0  0  0  0  0  0  0  0  0
    6.8790   -9.2120   22.5170 H   0  0  0  0  0  0  0  0  0  0  0  0
    5.5160   -7.5840   26.0340 H   0  0  0  0  0  0  0  0  0  0  0  0
    6.0770   -5.2680   25.2200 H   0  0  0  0  0  0  0  0  0  0  0  0
    7.2260   -4.9930   21.6730 H   0  0  0  0  0  0  0  0  0  0  0  0
    7.6070   -3.6900   24.1460 H   0  0  0  0  0  0  0  0  0  0  0  0
    5.9150   -3.4410   23.7380 H   0  0  0  0  0  0  0  0  0  0  0  0
    8.2780   -2.7440   21.9310 H   0  0  0  0  0  0  0  0  0  0  0  0
    5.2800   -2.4570   21.5600 H   0  0  0  0  0  0  0  0  0  0  0  0
    6.5030   -2.7790   20.3370 H   0  0  0  0  0  0  0  0  0  0  0  0
    8.9370   -0.8660   23.5360 C   0  0  0  0  0  0  0  0  0  0  0  0
    9.9350   -0.5490   22.6050 C   0  0  0  0  0  0  0  0  0  0  0  0
   11.2480   -0.4090   23.0260 C   0  0  0  0  0  0  0  0  0  0  0  0
   12.4940   -0.0060   21.8760 Cl  0  0  0  0  0  0  0  0  0  0  0  0
   11.6050   -0.5850   24.3640 C   0  0  0  0  0  0  0  0  0  0  0  0
   10.6280   -0.9290   25.2820 C   0  0  0  0  0  0  0  0  0  0  0  0
    9.3070   -1.0790   24.8680 C   0  0  0  0  0  0  0  0  0  0  0  0
    8.3140   -1.5590   25.8750 C   0  0  0  0  0  0  0  0  0  0  0  0
    8.6640   -2.0110   26.9550 O   0  0  0  0  0  0  0  0  0  0  0  0
   10.8490   -1.1080   26.3330 H   0  0  0  0  0  0  0  0  0  0  0  0
   12.6410   -0.4820   24.6620 H   0  0  0  0  0  0  0  0  0  0  0  0
    9.6870   -0.4040   21.5580 H   0  0  0  0  0  0  0  0  0  0  0  0
    6.5700    0.2630   24.4560 H   0  0  0  0  0  0  0  0  0  0  0  0
    5.5550   -1.1420   24.0550 H   0  0  0  0  0  0  0  0  0  0  0  0
    6.4750   -2.8740   26.9380 H   0  0  0  0  0  0  0  0  0  0  0  0
    5.1370   -2.3370   25.8630 H   0  0  0  0  0  0  0  0  0  0  0  0
    6.7900   -1.7630   28.8590 H   0  0  0  0  0  0  0  0  0  0  0  0
    5.9740    0.8610   29.3620 H   0  0  0  0  0  0  0  0  0  0  0  0
    4.6090   -0.1240   29.8700 H   0  0  0  0  0  0  0  0  0  0  0  0
    6.1990   -0.3750   30.6310 H   0  0  0  0  0  0  0  0  0  0  0  0
  1  2  1  0  0  0  0
  1 64  1  0  0  0  0
  1 65  1  0  0  0  0
  1 66  1  0  0  0  0
  2  3  1  0  0  0  0
  2 63  1  0  0  0  0
  3  4  2  0  0  0  0
  3  5  1  0  0  0  0
  5  6  1  0  0  0  0
  5 61  1  0  0  0  0
  5 62  1  0  0  0  0
  6  7  1  0  0  0  0
  6 54  1  0  0  0  0
  7  8  1  0  0  0  0
  7 59  1  0  0  0  0
  7 60  1  0  0  0  0
  8  9  1  6  0  0  0
  8 29  1  0  0  0  0
  8 47  1  0  0  0  0
  9 10  2  0  0  0  0
  9 11  1  0  0  0  0
 11 12  1  0  0  0  0
 11 28  1  0  0  0  0
 12 13  2  0  0  0  0
 12 21  1  0  0  0  0
 13 14  1  0  0  0  0
 13 27  1  0  0  0  0
 14 15  2  0  0  0  0
 15 16  1  0  0  0  0
 15 26  1  0  0  0  0
 16 17  2  0  0  0  0
 16 21  1  0  0  0  0
 17 18  1  0  0  0  0
 17 25  1  0  0  0  0
 18 19  2  0  0  0  0
 18 24  1  0  0  0  0
 19 20  1  0  0  0  0
 19 23  1  0  0  0  0
 20 21  2  0  0  0  0
 20 22  1  0  0  0  0
 28 29  1  0  0  0  0
 28 45  1  0  0  0  0
 28 46  1  0  0  0  0
 29 30  1  0  0  0  0
 29 44  1  6  0  0  0
 30 31  1  0  0  0  0
 30 42  1  0  0  0  0
 30 43  1  0  0  0  0
 31 32  1  0  0  0  0
 31 41  1  0  0  0  0
 32 33  2  0  0  0  0
 32 37  1  0  0  0  0
 33 34  1  0  0  0  0
 33 40  1  0  0  0  0
 34 35  2  0  0  0  0
 34 39  1  0  0  0  0
 35 36  1  0  0  0  0
 36 37  2  0  0  0  0
 36 38  1  0  0  0  0
 47 48  2  0  0  0  0
 47 53  1  0  0  0  0
 48 49  1  0  0  0  0
 48 58  1  0  0  0  0
 49 50  1  0  0  0  0
 49 51  2  0  0  0  0
 51 52  1  0  0  0  0
 51 57  1  0  0  0  0
 52 53  2  0  0  0  0
 52 56  1  0  0  0  0
 53 54  1  0  0  0  0
 54 55  2  0  0  0  0
M  END
>  <MODEL>
       3

$$$$
best_conformers_52.pdb
 OpenBabel02042510453D

 66 71  0  0  1  0  0  0  0  0999 V2000
    5.0850   -8.1460   25.5910 C   0  0  0  0  0  0  0  0  0  0  0  0
    4.5280   -7.0120   24.8760 N   0  0  0  0  0  0  0  0  0  0  0  0
    5.1910   -6.5140   23.8070 C   0  0  0  0  0  0  0  0  0  0  0  0
    6.2130   -7.0230   23.3690 O   0  0  0  0  0  0  0  0  0  0  0  0
    4.5780   -5.2570   23.1670 C   0  0  0  0  0  0  0  0  0  0  0  0
    5.1220   -4.0200   23.6850 N   0  0  0  0  0  0  0  0  0  0  0  0
    6.4590   -3.6150   23.2820 C   0  0  0  0  0  0  0  0  0  0  0  0
    6.5380   -2.0920   23.0000 C   0  0  2  0  0  0  0  0  0  0  0  0
    5.6870   -1.7420   21.7570 C   0  0  0  0  0  0  0  0  0  0  0  0
    4.5650   -2.1310   21.5160 O   0  0  0  0  0  0  0  0  0  0  0  0
    6.4000   -0.8780   20.9570 N   0  0  0  0  0  0  0  0  0  0  0  0
    5.8030   -0.2080   19.8540 C   0  0  0  0  0  0  0  0  0  0  0  0
    6.2550   -0.4570   18.5830 C   0  0  0  0  0  0  0  0  0  0  0  0
    5.7800    0.1320   17.4580 N   0  0  0  0  0  0  0  0  0  0  0  0
    4.8060    1.0010   17.6060 C   0  0  0  0  0  0  0  0  0  0  0  0
    4.2380    1.3630   18.8620 C   0  0  0  0  0  0  0  0  0  0  0  0
    3.1900    2.3220   18.9560 C   0  0  0  0  0  0  0  0  0  0  0  0
    2.6780    2.6690   20.1750 C   0  0  0  0  0  0  0  0  0  0  0  0
    3.1990    2.0840   21.3530 C   0  0  0  0  0  0  0  0  0  0  0  0
    4.2120    1.1600   21.2910 C   0  0  0  0  0  0  0  0  0  0  0  0
    4.7510    0.7550   20.0320 C   0  0  0  0  0  0  0  0  0  0  0  0
    4.6010    0.7250   22.2110 H   0  0  0  0  0  0  0  0  0  0  0  0
    2.7840    2.3690   22.3160 H   0  0  0  0  0  0  0  0  0  0  0  0
    1.8770    3.4010   20.2480 H   0  0  0  0  0  0  0  0  0  0  0  0
    2.8160    2.7760   18.0400 H   0  0  0  0  0  0  0  0  0  0  0  0
    4.4140    1.4620   16.6980 H   0  0  0  0  0  0  0  0  0  0  0  0
    7.0480   -1.1870   18.4280 H   0  0  0  0  0  0  0  0  0  0  0  0
    7.7410   -0.5940   21.4290 C   0  0  0  0  0  0  0  0  0  0  0  0
    7.9650   -1.5610   22.6160 C   0  0  2  0  0  0  0  0  0  0  0  0
    9.0540   -2.6060   22.2450 C   0  0  0  0  0  0  0  0  0  0  0  0
    9.5390   -3.4010   23.3600 N   0  0  0  0  0  0  0  0  0  0  0  0
   10.3050   -2.9270   24.3730 C   0  0  0  0  0  0  0  0  0  0  0  0
   10.6000   -3.7560   25.4820 C   0  0  0  0  0  0  0  0  0  0  0  0
   11.3600   -3.1900   26.4810 C   0  0  0  0  0  0  0  0  0  0  0  0
   11.8240   -1.9280   26.4220 N   0  0  0  0  0  0  0  0  0  0  0  0
   11.4990   -1.2570   25.3280 C   0  0  0  0  0  0  0  0  0  0  0  0
   10.7530   -1.6690   24.2970 N   0  0  0  0  0  0  0  0  0  0  0  0
   11.8780   -0.2330   25.2580 H   0  0  0  0  0  0  0  0  0  0  0  0
   11.6220   -3.7490   27.3840 H   0  0  0  0  0  0  0  0  0  0  0  0
   10.2220   -4.7750   25.5640 H   0  0  0  0  0  0  0  0  0  0  0  0
    9.3640   -4.3910   23.3740 H   0  0  0  0  0  0  0  0  0  0  0  0
    8.6660   -3.3010   21.4950 H   0  0  0  0  0  0  0  0  0  0  0  0
    9.9090   -2.0630   21.8120 H   0  0  0  0  0  0  0  0  0  0  0  0
    8.3930   -1.0320   23.4730 H   0  0  0  0  0  0  0  0  0  0  0  0
    8.4660   -0.7490   20.6210 H   0  0  0  0  0  0  0  0  0  0  0  0
    7.8350    0.4570   21.7380 H   0  0  0  0  0  0  0  0  0  0  0  0
    5.9330   -1.3850   24.2180 C   0  0  0  0  0  0  0  0  0  0  0  0
    6.2380   -0.0430   24.4850 C   0  0  0  0  0  0  0  0  0  0  0  0
    5.6520    0.6040   25.5600 C   0  0  0  0  0  0  0  0  0  0  0  0
    6.0460    2.2700   25.8830 Cl  0  0  0  0  0  0  0  0  0  0  0  0
    4.7410   -0.0430   26.3900 C   0  0  0  0  0  0  0  0  0  0  0  0
    4.4040   -1.3530   26.1090 C   0  0  0  0  0  0  0  0  0  0  0  0
    4.9730   -2.0200   25.0250 C   0  0  0  0  0  0  0  0  0  0  0  0
    4.4850   -3.4080   24.7190 C   0  0  0  0  0  0  0  0  0  0  0  0
    3.5650   -3.9530   25.3270 O   0  0  0  0  0  0  0  0  0  0  0  0
    3.6740   -1.8910   26.7030 H   0  0  0  0  0  0  0  0  0  0  0  0
    4.2990    0.4900   27.2240 H   0  0  0  0  0  0  0  0  0  0  0  0
    6.9190    0.5300   23.8620 H   0  0  0  0  0  0  0  0  0  0  0  0
    7.1720   -3.8620   24.0790 H   0  0  0  0  0  0  0  0  0  0  0  0
    6.7020   -4.1880   22.3860 H   0  0  0  0  0  0  0  0  0  0  0  0
    4.8090   -5.3000   22.0980 H   0  0  0  0  0  0  0  0  0  0  0  0
    3.4920   -5.2200   23.2960 H   0  0  0  0  0  0  0  0  0  0  0  0
    3.7130   -6.5240   25.2220 H   0  0  0  0  0  0  0  0  0  0  0  0
    5.1720   -9.0030   24.9200 H   0  0  0  0  0  0  0  0  0  0  0  0
    6.0930   -7.9260   25.9660 H   0  0  0  0  0  0  0  0  0  0  0  0
    4.4280   -8.3970   26.4260 H   0  0  0  0  0  0  0  0  0  0  0  0
  1  2  1  0  0  0  0
  1 64  1  0  0  0  0
  1 65  1  0  0  0  0
  1 66  1  0  0  0  0
  2  3  1  0  0  0  0
  2 63  1  0  0  0  0
  3  4  2  0  0  0  0
  3  5  1  0  0  0  0
  5  6  1  0  0  0  0
  5 61  1  0  0  0  0
  5 62  1  0  0  0  0
  6  7  1  0  0  0  0
  6 54  1  0  0  0  0
  7  8  1  0  0  0  0
  7 59  1  0  0  0  0
  7 60  1  0  0  0  0
  8  9  1  6  0  0  0
  8 29  1  0  0  0  0
  8 47  1  0  0  0  0
  9 10  2  0  0  0  0
  9 11  1  0  0  0  0
 11 12  1  0  0  0  0
 11 28  1  0  0  0  0
 12 13  2  0  0  0  0
 12 21  1  0  0  0  0
 13 14  1  0  0  0  0
 13 27  1  0  0  0  0
 14 15  2  0  0  0  0
 15 16  1  0  0  0  0
 15 26  1  0  0  0  0
 16 17  2  0  0  0  0
 16 21  1  0  0  0  0
 17 18  1  0  0  0  0
 17 25  1  0  0  0  0
 18 19  2  0  0  0  0
 18 24  1  0  0  0  0
 19 20  1  0  0  0  0
 19 23  1  0  0  0  0
 20 21  2  0  0  0  0
 20 22  1  0  0  0  0
 28 29  1  0  0  0  0
 28 45  1  0  0  0  0
 28 46  1  0  0  0  0
 29 30  1  0  0  0  0
 29 44  1  1  0  0  0
 30 31  1  0  0  0  0
 30 42  1  0  0  0  0
 30 43  1  0  0  0  0
 31 32  1  0  0  0  0
 31 41  1  0  0  0  0
 32 33  2  0  0  0  0
 32 37  1  0  0  0  0
 33 34  1  0  0  0  0
 33 40  1  0  0  0  0
 34 35  2  0  0  0  0
 34 39  1  0  0  0  0
 35 36  1  0  0  0  0
 36 37  2  0  0  0  0
 36 38  1  0  0  0  0
 47 48  2  0  0  0  0
 47 53  1  0  0  0  0
 48 49  1  0  0  0  0
 48 58  1  0  0  0  0
 49 50  1  0  0  0  0
 49 51  2  0  0  0  0
 51 52  1  0  0  0  0
 51 57  1  0  0  0  0
 52 53  2  0  0  0  0
 52 56  1  0  0  0  0
 53 54  1  0  0  0  0
 54 55  2  0  0  0  0
M  END
>  <MODEL>
       4

$$$$
best_conformers_52.pdb
 OpenBabel02042510453D

 66 71  0  0  1  0  0  0  0  0999 V2000
    5.0420   -8.1690   25.5530 C   0  0  0  0  0  0  0  0  0  0  0  0
    4.4970   -7.0230   24.8490 N   0  0  0  0  0  0  0  0  0  0  0  0
    5.1670   -6.5240   23.7840 C   0  0  0  0  0  0  0  0  0  0  0  0
    6.1870   -7.0370   23.3470 O   0  0  0  0  0  0  0  0  0  0  0  0
    4.5610   -5.2620   23.1490 C   0  0  0  0  0  0  0  0  0  0  0  0
    5.1150   -4.0310   23.6710 N   0  0  0  0  0  0  0  0  0  0  0  0
    6.4520   -3.6320   23.2640 C   0  0  0  0  0  0  0  0  0  0  0  0
    6.5380   -2.1090   22.9930 C   0  0  2  0  0  0  0  0  0  0  0  0
    5.6880   -1.7460   21.7550 C   0  0  0  0  0  0  0  0  0  0  0  0
    4.5630   -2.1290   21.5130 O   0  0  0  0  0  0  0  0  0  0  0  0
    6.4030   -0.8810   20.9580 N   0  0  0  0  0  0  0  0  0  0  0  0
    5.8060   -0.2090   19.8560 C   0  0  0  0  0  0  0  0  0  0  0  0
    6.2560   -0.4580   18.5840 C   0  0  0  0  0  0  0  0  0  0  0  0
    5.7800    0.1320   17.4590 N   0  0  0  0  0  0  0  0  0  0  0  0
    4.8060    1.0010   17.6060 C   0  0  0  0  0  0  0  0  0  0  0  0
    4.2390    1.3620   18.8630 C   0  0  0  0  0  0  0  0  0  0  0  0
    3.1910    2.3220   18.9570 C   0  0  0  0  0  0  0  0  0  0  0  0
    2.6780    2.6690   20.1760 C   0  0  0  0  0  0  0  0  0  0  0  0
    3.1990    2.0840   21.3530 C   0  0  0  0  0  0  0  0  0  0  0  0
    4.2120    1.1600   21.2910 C   0  0  0  0  0  0  0  0  0  0  0  0
    4.7520    0.7540   20.0330 C   0  0  0  0  0  0  0  0  0  0  0  0
    4.6010    0.7240   22.2110 H   0  0  0  0  0  0  0  0  0  0  0  0
    2.7840    2.3690   22.3160 H   0  0  0  0  0  0  0  0  0  0  0  0
    1.8770    3.4010   20.2480 H   0  0  0  0  0  0  0  0  0  0  0  0
    2.8160    2.7760   18.0410 H   0  0  0  0  0  0  0  0  0  0  0  0
    4.4140    1.4620   16.6990 H   0  0  0  0  0  0  0  0  0  0  0  0
    7.0480   -1.1880   18.4260 H   0  0  0  0  0  0  0  0  0  0  0  0
    7.7500   -0.6120   21.4280 C   0  0  0  0  0  0  0  0  0  0  0  0
    7.9700   -1.5840   22.6150 C   0  0  2  0  0  0  0  0  0  0  0  0
    9.0470   -2.6450   22.2500 C   0  0  0  0  0  0  0  0  0  0  0  0
    9.5340   -3.4420   23.3550 N   0  0  0  0  0  0  0  0  0  0  0  0
   10.2790   -2.9810   24.3900 C   0  0  0  0  0  0  0  0  0  0  0  0
   10.8970   -1.7180   24.3680 C   0  0  0  0  0  0  0  0  0  0  0  0
   11.6040   -1.3660   25.5030 C   0  0  0  0  0  0  0  0  0  0  0  0
   11.6990   -2.1600   26.5780 N   0  0  0  0  0  0  0  0  0  0  0  0
   11.0920   -3.3370   26.4740 C   0  0  0  0  0  0  0  0  0  0  0  0
   10.4070   -3.8110   25.4370 N   0  0  0  0  0  0  0  0  0  0  0  0
   11.1670   -3.9910   27.3480 H   0  0  0  0  0  0  0  0  0  0  0  0
   12.1180   -0.4010   25.5650 H   0  0  0  0  0  0  0  0  0  0  0  0
   10.8210   -1.0660   23.5020 H   0  0  0  0  0  0  0  0  0  0  0  0
    9.3530   -4.4310   23.4000 H   0  0  0  0  0  0  0  0  0  0  0  0
    9.9050   -2.1280   21.7880 H   0  0  0  0  0  0  0  0  0  0  0  0
    8.6520   -3.3420   21.5060 H   0  0  0  0  0  0  0  0  0  0  0  0
    8.3750   -1.0520   23.4840 H   0  0  0  0  0  0  0  0  0  0  0  0
    8.4680   -0.7670   20.6140 H   0  0  0  0  0  0  0  0  0  0  0  0
    7.8490    0.4370   21.7390 H   0  0  0  0  0  0  0  0  0  0  0  0
    5.9410   -1.4040   24.2160 C   0  0  0  0  0  0  0  0  0  0  0  0
    6.2520   -0.0630   24.4860 C   0  0  0  0  0  0  0  0  0  0  0  0
    5.6720    0.5810   25.5660 C   0  0  0  0  0  0  0  0  0  0  0  0
    6.0720    2.2440   25.8950 Cl  0  0  0  0  0  0  0  0  0  0  0  0
    4.7650   -0.0680   26.3990 C   0  0  0  0  0  0  0  0  0  0  0  0
    4.4220   -1.3750   26.1140 C   0  0  0  0  0  0  0  0  0  0  0  0
    4.9830   -2.0390   25.0240 C   0  0  0  0  0  0  0  0  0  0  0  0
    4.4880   -3.4220   24.7130 C   0  0  0  0  0  0  0  0  0  0  0  0
    3.5700   -3.9690   25.3240 O   0  0  0  0  0  0  0  0  0  0  0  0
    3.6940   -1.9150   26.7090 H   0  0  0  0  0  0  0  0  0  0  0  0
    4.3290    0.4620   27.2380 H   0  0  0  0  0  0  0  0  0  0  0  0
    6.9260    0.5130   23.8600 H   0  0  0  0  0  0  0  0  0  0  0  0
    6.6880   -4.2000   22.3640 H   0  0  0  0  0  0  0  0  0  0  0  0
    7.1660   -3.8860   24.0560 H   0  0  0  0  0  0  0  0  0  0  0  0
    3.4760   -5.2180   23.2790 H   0  0  0  0  0  0  0  0  0  0  0  0
    4.7920   -5.3010   22.0800 H   0  0  0  0  0  0  0  0  0  0  0  0
    3.6800   -6.5350   25.1910 H   0  0  0  0  0  0  0  0  0  0  0  0
    5.1230   -9.0160   24.8700 H   0  0  0  0  0  0  0  0  0  0  0  0
    6.0510   -7.9600   25.9350 H   0  0  0  0  0  0  0  0  0  0  0  0
    4.3810   -8.4250   26.3840 H   0  0  0  0  0  0  0  0  0  0  0  0
  1  2  1  0  0  0  0
  1 64  1  0  0  0  0
  1 65  1  0  0  0  0
  1 66  1  0  0  0  0
  2  3  1  0  0  0  0
  2 63  1  0  0  0  0
  3  4  2  0  0  0  0
  3  5  1  0  0  0  0
  5  6  1  0  0  0  0
  5 61  1  0  0  0  0
  5 62  1  0  0  0  0
  6  7  1  0  0  0  0
  6 54  1  0  0  0  0
  7  8  1  0  0  0  0
  7 59  1  0  0  0  0
  7 60  1  0  0  0  0
  8  9  1  6  0  0  0
  8 29  1  0  0  0  0
  8 47  1  0  0  0  0
  9 10  2  0  0  0  0
  9 11  1  0  0  0  0
 11 12  1  0  0  0  0
 11 28  1  0  0  0  0
 12 13  2  0  0  0  0
 12 21  1  0  0  0  0
 13 14  1  0  0  0  0
 13 27  1  0  0  0  0
 14 15  2  0  0  0  0
 15 16  1  0  0  0  0
 15 26  1  0  0  0  0
 16 17  2  0  0  0  0
 16 21  1  0  0  0  0
 17 18  1  0  0  0  0
 17 25  1  0  0  0  0
 18 19  2  0  0  0  0
 18 24  1  0  0  0  0
 19 20  1  0  0  0  0
 19 23  1  0  0  0  0
 20 21  2  0  0  0  0
 20 22  1  0  0  0  0
 28 29  1  0  0  0  0
 28 45  1  0  0  0  0
 28 46  1  0  0  0  0
 29 30  1  0  0  0  0
 29 44  1  1  0  0  0
 30 31  1  0  0  0  0
 30 42  1  0  0  0  0
 30 43  1  0  0  0  0
 31 32  1  0  0  0  0
 31 41  1  0  0  0  0
 32 33  2  0  0  0  0
 32 37  1  0  0  0  0
 33 34  1  0  0  0  0
 33 40  1  0  0  0  0
 34 35  2  0  0  0  0
 34 39  1  0  0  0  0
 35 36  1  0  0  0  0
 36 37  2  0  0  0  0
 36 38  1  0  0  0  0
 47 48  2  0  0  0  0
 47 53  1  0  0  0  0
 48 49  1  0  0  0  0
 48 58  1  0  0  0  0
 49 50  1  0  0  0  0
 49 51  2  0  0  0  0
 51 52  1  0  0  0  0
 51 57  1  0  0  0  0
 52 53  2  0  0  0  0
 52 56  1  0  0  0  0
 53 54  1  0  0  0  0
 54 55  2  0  0  0  0
M  END
>  <MODEL>
       5

$$$$
