best_conformers_71.pdb
 OpenBabel02042510453D

 59 64  0  0  1  0  0  0  0  0999 V2000
    8.9890   -2.6980   22.1630 C   0  0  0  0  0  0  0  0  0  0  0  0
    7.9780   -1.6140   22.5740 C   0  0  1  0  0  0  0  0  0  0  0  0
    7.7480   -0.6180   21.4100 C   0  0  0  0  0  0  0  0  0  0  0  0
    6.3940   -0.8770   20.9590 N   0  0  0  0  0  0  0  0  0  0  0  0
    5.8000   -0.2100   19.8560 C   0  0  0  0  0  0  0  0  0  0  0  0
    6.2580   -0.4590   18.5860 C   0  0  0  0  0  0  0  0  0  0  0  0
    5.7830    0.1300   17.4610 N   0  0  0  0  0  0  0  0  0  0  0  0
    4.8080    0.9990   17.6080 C   0  0  0  0  0  0  0  0  0  0  0  0
    4.2390    1.3600   18.8640 C   0  0  0  0  0  0  0  0  0  0  0  0
    3.1920    2.3200   18.9570 C   0  0  0  0  0  0  0  0  0  0  0  0
    2.6790    2.6690   20.1760 C   0  0  0  0  0  0  0  0  0  0  0  0
    3.1990    2.0850   21.3540 C   0  0  0  0  0  0  0  0  0  0  0  0
    4.2110    1.1590   21.2920 C   0  0  0  0  0  0  0  0  0  0  0  0
    4.7490    0.7530   20.0340 C   0  0  0  0  0  0  0  0  0  0  0  0
    4.6000    0.7220   22.2090 H   0  0  0  0  0  0  0  0  0  0  0  0
    2.7870    2.3710   22.3170 H   0  0  0  0  0  0  0  0  0  0  0  0
    1.8770    3.4010   20.2460 H   0  0  0  0  0  0  0  0  0  0  0  0
    2.8190    2.7730   18.0410 H   0  0  0  0  0  0  0  0  0  0  0  0
    4.4160    1.4590   16.7010 H   0  0  0  0  0  0  0  0  0  0  0  0
    7.0510   -1.1890   18.4310 H   0  0  0  0  0  0  0  0  0  0  0  0
    5.6840   -1.7400   21.7600 C   0  0  0  0  0  0  0  0  0  0  0  0
    4.5510   -2.1160   21.5320 O   0  0  0  0  0  0  0  0  0  0  0  0
    6.5490   -2.1210   22.9790 C   0  0  1  0  0  0  0  0  0  0  0  0
    6.4800   -3.6460   23.2220 C   0  0  0  0  0  0  0  0  0  0  0  0
    5.1770   -4.0790   23.6950 N   0  0  0  0  0  0  0  0  0  0  0  0
    4.5610   -5.2220   23.0360 C   0  0  0  0  0  0  0  0  0  0  0  0
    5.3920   -6.4730   23.1130 C   0  0  0  0  0  0  0  0  0  0  0  0
    6.0770   -6.9840   22.1110 N   0  0  0  0  0  0  0  0  0  0  0  0
    6.7340   -8.0700   22.6390 C   0  0  0  0  0  0  0  0  0  0  0  0
    6.4360   -8.2040   23.9620 C   0  0  0  0  0  0  0  0  0  0  0  0
    5.5720   -7.1780   24.2630 N   0  0  0  0  0  0  0  0  0  0  0  0
    5.0340   -6.8820   25.5750 C   0  0  0  0  0  0  0  0  0  0  0  0
    5.2240   -7.7470   26.2180 H   0  0  0  0  0  0  0  0  0  0  0  0
    5.5170   -5.9980   26.0020 H   0  0  0  0  0  0  0  0  0  0  0  0
    3.9560   -6.7060   25.5200 H   0  0  0  0  0  0  0  0  0  0  0  0
    6.7320   -8.9100   24.7180 H   0  0  0  0  0  0  0  0  0  0  0  0
    7.3830   -8.6940   22.0370 H   0  0  0  0  0  0  0  0  0  0  0  0
    3.5790   -5.3430   23.5010 H   0  0  0  0  0  0  0  0  0  0  0  0
    4.4310   -4.9880   21.9720 H   0  0  0  0  0  0  0  0  0  0  0  0
    4.5410   -3.4450   24.7230 C   0  0  0  0  0  0  0  0  0  0  0  0
    3.6040   -3.9450   25.3380 O   0  0  0  0  0  0  0  0  0  0  0  0
    5.0520   -2.0730   25.0450 C   0  0  0  0  0  0  0  0  0  0  0  0
    4.5100   -1.4290   26.1590 C   0  0  0  0  0  0  0  0  0  0  0  0
    4.8600   -0.1260   26.4540 C   0  0  0  0  0  0  0  0  0  0  0  0
    5.7470    0.5220   25.6050 C   0  0  0  0  0  0  0  0  0  0  0  0
    6.0700    1.8000   25.8720 F   0  0  0  0  0  0  0  0  0  0  0  0
    6.3060   -0.0920   24.5010 C   0  0  0  0  0  0  0  0  0  0  0  0
    5.9840   -1.4270   24.2190 C   0  0  0  0  0  0  0  0  0  0  0  0
    6.9750    0.4950   23.8810 H   0  0  0  0  0  0  0  0  0  0  0  0
    4.4530    0.4090   27.3030 H   0  0  0  0  0  0  0  0  0  0  0  0
    3.7960   -1.9810   26.7600 H   0  0  0  0  0  0  0  0  0  0  0  0
    6.6630   -4.1750   22.2880 H   0  0  0  0  0  0  0  0  0  0  0  0
    7.2470   -3.9260   23.9600 H   0  0  0  0  0  0  0  0  0  0  0  0
    8.4600   -0.7810   20.5920 H   0  0  0  0  0  0  0  0  0  0  0  0
    7.8640    0.4290   21.7260 H   0  0  0  0  0  0  0  0  0  0  0  0
    8.4160   -1.0980   23.4370 H   0  0  0  0  0  0  0  0  0  0  0  0
    9.1980   -3.3950   22.9780 H   0  0  0  0  0  0  0  0  0  0  0  0
    8.6340   -3.2780   21.3060 H   0  0  0  0  0  0  0  0  0  0  0  0
    9.9410   -2.2360   21.8790 H   0  0  0  0  0  0  0  0  0  0  0  0
  1  2  1  0  0  0  0
  1 57  1  0  0  0  0
  1 58  1  0  0  0  0
  1 59  1  0  0  0  0
  2  3  1  0  0  0  0
  2 23  1  0  0  0  0
  2 56  1  1  0  0  0
  3  4  1  0  0  0  0
  3 54  1  0  0  0  0
  3 55  1  0  0  0  0
  4  5  1  0  0  0  0
  4 21  1  0  0  0  0
  5  6  2  0  0  0  0
  5 14  1  0  0  0  0
  6  7  1  0  0  0  0
  6 20  1  0  0  0  0
  7  8  2  0  0  0  0
  8  9  1  0  0  0  0
  8 19  1  0  0  0  0
  9 10  2  0  0  0  0
  9 14  1  0  0  0  0
 10 11  1  0  0  0  0
 10 18  1  0  0  0  0
 11 12  2  0  0  0  0
 11 17  1  0  0  0  0
 12 13  1  0  0  0  0
 12 16  1  0  0  0  0
 13 14  2  0  0  0  0
 13 15  1  0  0  0  0
 21 22  2  0  0  0  0
 23 21  1  6  0  0  0
 23 24  1  0  0  0  0
 23 48  1  0  0  0  0
 24 25  1  0  0  0  0
 24 52  1  0  0  0  0
 24 53  1  0  0  0  0
 25 26  1  0  0  0  0
 25 40  1  0  0  0  0
 26 27  1  0  0  0  0
 26 38  1  0  0  0  0
 26 39  1  0  0  0  0
 27 28  2  0  0  0  0
 27 31  1  0  0  0  0
 28 29  1  0  0  0  0
 29 30  2  0  0  0  0
 29 37  1  0  0  0  0
 30 31  1  0  0  0  0
 30 36  1  0  0  0  0
 31 32  1  0  0  0  0
 32 33  1  0  0  0  0
 32 34  1  0  0  0  0
 32 35  1  0  0  0  0
 40 41  2  0  0  0  0
 40 42  1  0  0  0  0
 42 43  2  0  0  0  0
 42 48  1  0  0  0  0
 43 44  1  0  0  0  0
 43 51  1  0  0  0  0
 44 45  2  0  0  0  0
 44 50  1  0  0  0  0
 45 46  1  0  0  0  0
 45 47  1  0  0  0  0
 47 48  2  0  0  0  0
 47 49  1  0  0  0  0
M  END
>  <MODEL>
       1

$$$$
best_conformers_71.pdb
 OpenBabel02042510453D

 59 64  0  0  1  0  0  0  0  0999 V2000
    8.9990   -2.6990   22.1660 C   0  0  0  0  0  0  0  0  0  0  0  0
    7.9820   -1.6170   22.5760 C   0  0  1  0  0  0  0  0  0  0  0  0
    7.7540   -0.6210   21.4080 C   0  0  0  0  0  0  0  0  0  0  0  0
    6.3970   -0.8720   20.9610 N   0  0  0  0  0  0  0  0  0  0  0  0
    5.8030   -0.2060   19.8540 C   0  0  0  0  0  0  0  0  0  0  0  0
    6.2530   -0.4590   18.5840 C   0  0  0  0  0  0  0  0  0  0  0  0
    5.7780    0.1330   17.4590 N   0  0  0  0  0  0  0  0  0  0  0  0
    4.8050    1.0020   17.6060 C   0  0  0  0  0  0  0  0  0  0  0  0
    4.2370    1.3650   18.8590 C   0  0  0  0  0  0  0  0  0  0  0  0
    3.1890    2.3230   18.9560 C   0  0  0  0  0  0  0  0  0  0  0  0
    2.6760    2.6700   20.1740 C   0  0  0  0  0  0  0  0  0  0  0  0
    3.1990    2.0840   21.3530 C   0  0  0  0  0  0  0  0  0  0  0  0
    4.2130    1.1620   21.2870 C   0  0  0  0  0  0  0  0  0  0  0  0
    4.7500    0.7560   20.0300 C   0  0  0  0  0  0  0  0  0  0  0  0
    4.6030    0.7210   22.2050 H   0  0  0  0  0  0  0  0  0  0  0  0
    2.7860    2.3690   22.3180 H   0  0  0  0  0  0  0  0  0  0  0  0
    1.8750    3.4020   20.2480 H   0  0  0  0  0  0  0  0  0  0  0  0
    2.8140    2.7780   18.0400 H   0  0  0  0  0  0  0  0  0  0  0  0
    4.4140    1.4620   16.6980 H   0  0  0  0  0  0  0  0  0  0  0  0
    7.0450   -1.1890   18.4270 H   0  0  0  0  0  0  0  0  0  0  0  0
    5.6860   -1.7370   21.7620 C   0  0  0  0  0  0  0  0  0  0  0  0
    4.5520   -2.1060   21.5420 O   0  0  0  0  0  0  0  0  0  0  0  0
    6.5580   -2.1310   22.9780 C   0  0  1  0  0  0  0  0  0  0  0  0
    6.4820   -3.6590   23.1990 C   0  0  0  0  0  0  0  0  0  0  0  0
    5.1590   -4.0620   23.6330 N   0  0  0  0  0  0  0  0  0  0  0  0
    4.5400   -5.2560   23.0950 C   0  0  0  0  0  0  0  0  0  0  0  0
    4.8580   -6.5060   23.8760 C   0  0  0  0  0  0  0  0  0  0  0  0
    6.0850   -6.9190   24.1000 N   0  0  0  0  0  0  0  0  0  0  0  0
    5.9520   -8.0770   24.8200 C   0  0  0  0  0  0  0  0  0  0  0  0
    4.6310   -8.3740   25.0170 C   0  0  0  0  0  0  0  0  0  0  0  0
    3.9300   -7.3650   24.3930 N   0  0  0  0  0  0  0  0  0  0  0  0
    2.4860   -7.2470   24.3220 C   0  0  0  0  0  0  0  0  0  0  0  0
    2.1690   -6.3080   24.7870 H   0  0  0  0  0  0  0  0  0  0  0  0
    2.0540   -8.0960   24.8580 H   0  0  0  0  0  0  0  0  0  0  0  0
    2.1450   -7.2840   23.2800 H   0  0  0  0  0  0  0  0  0  0  0  0
    4.1280   -9.1670   25.5540 H   0  0  0  0  0  0  0  0  0  0  0  0
    6.8340   -8.5840   25.1670 H   0  0  0  0  0  0  0  0  0  0  0  0
    3.4590   -5.0930   23.0210 H   0  0  0  0  0  0  0  0  0  0  0  0
    4.9350   -5.3620   22.0770 H   0  0  0  0  0  0  0  0  0  0  0  0
    4.5680   -3.4830   24.7150 C   0  0  0  0  0  0  0  0  0  0  0  0
    3.6730   -4.0540   25.3270 O   0  0  0  0  0  0  0  0  0  0  0  0
    5.0670   -2.1090   25.0570 C   0  0  0  0  0  0  0  0  0  0  0  0
    4.5330   -1.4690   26.1760 C   0  0  0  0  0  0  0  0  0  0  0  0
    4.8670   -0.1610   26.4680 C   0  0  0  0  0  0  0  0  0  0  0  0
    5.7360    0.4990   25.6090 C   0  0  0  0  0  0  0  0  0  0  0  0
    6.0440    1.7810   25.8740 F   0  0  0  0  0  0  0  0  0  0  0  0
    6.2920   -0.1110   24.5020 C   0  0  0  0  0  0  0  0  0  0  0  0
    5.9910   -1.4520   24.2270 C   0  0  0  0  0  0  0  0  0  0  0  0
    6.9420    0.4880   23.8700 H   0  0  0  0  0  0  0  0  0  0  0  0
    4.4630    0.3700   27.3220 H   0  0  0  0  0  0  0  0  0  0  0  0
    3.8310   -2.0200   26.7920 H   0  0  0  0  0  0  0  0  0  0  0  0
    6.6970   -4.1850   22.2680 H   0  0  0  0  0  0  0  0  0  0  0  0
    7.2300   -3.9590   23.9480 H   0  0  0  0  0  0  0  0  0  0  0  0
    8.4630   -0.7900   20.5880 H   0  0  0  0  0  0  0  0  0  0  0  0
    7.8780    0.4260   21.7250 H   0  0  0  0  0  0  0  0  0  0  0  0
    8.4220   -1.0980   23.4370 H   0  0  0  0  0  0  0  0  0  0  0  0
    9.9530   -2.2330   21.8840 H   0  0  0  0  0  0  0  0  0  0  0  0
    9.2080   -3.3970   22.9830 H   0  0  0  0  0  0  0  0  0  0  0  0
    8.6480   -3.2810   21.3070 H   0  0  0  0  0  0  0  0  0  0  0  0
  1  2  1  0  0  0  0
  1 57  1  0  0  0  0
  1 58  1  0  0  0  0
  1 59  1  0  0  0  0
  2  3  1  0  0  0  0
  2 23  1  0  0  0  0
  2 56  1  1  0  0  0
  3  4  1  0  0  0  0
  3 54  1  0  0  0  0
  3 55  1  0  0  0  0
  4  5  1  0  0  0  0
  4 21  1  0  0  0  0
  5  6  2  0  0  0  0
  5 14  1  0  0  0  0
  6  7  1  0  0  0  0
  6 20  1  0  0  0  0
  7  8  2  0  0  0  0
  8  9  1  0  0  0  0
  8 19  1  0  0  0  0
  9 10  2  0  0  0  0
  9 14  1  0  0  0  0
 10 11  1  0  0  0  0
 10 18  1  0  0  0  0
 11 12  2  0  0  0  0
 11 17  1  0  0  0  0
 12 13  1  0  0  0  0
 12 16  1  0  0  0  0
 13 14  2  0  0  0  0
 13 15  1  0  0  0  0
 21 22  2  0  0  0  0
 23 21  1  6  0  0  0
 23 24  1  0  0  0  0
 23 48  1  0  0  0  0
 24 25  1  0  0  0  0
 24 52  1  0  0  0  0
 24 53  1  0  0  0  0
 25 26  1  0  0  0  0
 25 40  1  0  0  0  0
 26 27  1  0  0  0  0
 26 38  1  0  0  0  0
 26 39  1  0  0  0  0
 27 28  2  0  0  0  0
 27 31  1  0  0  0  0
 28 29  1  0  0  0  0
 29 30  2  0  0  0  0
 29 37  1  0  0  0  0
 30 31  1  0  0  0  0
 30 36  1  0  0  0  0
 31 32  1  0  0  0  0
 32 33  1  0  0  0  0
 32 34  1  0  0  0  0
 32 35  1  0  0  0  0
 40 41  2  0  0  0  0
 40 42  1  0  0  0  0
 42 43  2  0  0  0  0
 42 48  1  0  0  0  0
 43 44  1  0  0  0  0
 43 51  1  0  0  0  0
 44 45  2  0  0  0  0
 44 50  1  0  0  0  0
 45 46  1  0  0  0  0
 45 47  1  0  0  0  0
 47 48  2  0  0  0  0
 47 49  1  0  0  0  0
M  END
>  <MODEL>
       2

$$$$
