best_conformers_48.pdb
 OpenBabel02042510453D

 41 43  0  0  1  0  0  0  0  0999 V2000
    7.1720   -6.6660   21.1720 C   0  0  0  0  0  0  0  0  0  0  0  0
    6.9010   -5.3130   21.7770 C   0  0  1  0  0  0  0  0  0  0  0  0
    5.4670   -5.1500   22.2840 C   0  0  0  0  0  0  0  0  0  0  0  0
    5.2630   -3.9100   23.1590 C   0  0  0  0  0  0  0  0  0  0  0  0
    5.9950   -2.7310   22.6980 N   0  0  0  0  0  0  0  0  0  0  0  0
    5.5880   -2.1830   21.5030 C   0  0  0  0  0  0  0  0  0  0  0  0
    4.6610   -2.6430   20.8570 O   0  0  0  0  0  0  0  0  0  0  0  0
    6.3890   -0.9620   21.0430 C   0  0  0  0  0  0  0  0  0  0  0  0
    5.8000   -0.2500   19.8660 C   0  0  0  0  0  0  0  0  0  0  0  0
    6.2720   -0.4940   18.6090 C   0  0  0  0  0  0  0  0  0  0  0  0
    5.8200    0.0840   17.4640 N   0  0  0  0  0  0  0  0  0  0  0  0
    4.8380    0.9490   17.5950 C   0  0  0  0  0  0  0  0  0  0  0  0
    4.2480    1.3030   18.8400 C   0  0  0  0  0  0  0  0  0  0  0  0
    3.2090    2.2660   18.9350 C   0  0  0  0  0  0  0  0  0  0  0  0
    2.6760    2.5940   20.1530 C   0  0  0  0  0  0  0  0  0  0  0  0
    3.1520    1.9730   21.3290 C   0  0  0  0  0  0  0  0  0  0  0  0
    4.1520    1.0370   21.2640 C   0  0  0  0  0  0  0  0  0  0  0  0
    4.7340    0.6850   20.0160 C   0  0  0  0  0  0  0  0  0  0  0  0
    4.5090    0.5640   22.1760 H   0  0  0  0  0  0  0  0  0  0  0  0
    2.7280    2.2530   22.2910 H   0  0  0  0  0  0  0  0  0  0  0  0
    1.8900    3.3420   20.2240 H   0  0  0  0  0  0  0  0  0  0  0  0
    2.8620    2.7490   18.0250 H   0  0  0  0  0  0  0  0  0  0  0  0
    4.4670    1.4210   16.6840 H   0  0  0  0  0  0  0  0  0  0  0  0
    7.0910   -1.2020   18.4690 H   0  0  0  0  0  0  0  0  0  0  0  0
    6.5020   -0.2780   21.8920 H   0  0  0  0  0  0  0  0  0  0  0  0
    7.3960   -1.3190   20.7810 H   0  0  0  0  0  0  0  0  0  0  0  0
    7.3690   -2.6300   23.1920 C   0  0  0  0  0  0  0  0  0  0  0  0
    8.3450   -3.6400   22.5790 C   0  0  0  0  0  0  0  0  0  0  0  0
    7.9020   -4.9770   22.7280 O   0  0  0  0  0  0  0  0  0  0  0  0
    8.5070   -3.4200   21.5120 H   0  0  0  0  0  0  0  0  0  0  0  0
    9.3280   -3.5690   23.0550 H   0  0  0  0  0  0  0  0  0  0  0  0
    7.7550   -1.6160   23.0320 H   0  0  0  0  0  0  0  0  0  0  0  0
    7.3170   -2.8360   24.2680 H   0  0  0  0  0  0  0  0  0  0  0  0
    5.6140   -4.1200   24.1730 H   0  0  0  0  0  0  0  0  0  0  0  0
    4.1960   -3.6740   23.2170 H   0  0  0  0  0  0  0  0  0  0  0  0
    4.8310   -5.0600   21.3960 H   0  0  0  0  0  0  0  0  0  0  0  0
    5.1410   -6.0310   22.8410 H   0  0  0  0  0  0  0  0  0  0  0  0
    6.9840   -4.6120   20.9490 H   0  0  0  0  0  0  0  0  0  0  0  0
    8.1230   -6.6550   20.6280 H   0  0  0  0  0  0  0  0  0  0  0  0
    6.3840   -6.8660   20.4330 H   0  0  0  0  0  0  0  0  0  0  0  0
    7.1910   -7.4850   21.8910 H   0  0  0  0  0  0  0  0  0  0  0  0
  1  2  1  0  0  0  0
  1 39  1  0  0  0  0
  1 40  1  0  0  0  0
  1 41  1  0  0  0  0
  2  3  1  0  0  0  0
  2 29  1  0  0  0  0
  2 38  1  6  0  0  0
  3  4  1  0  0  0  0
  3 36  1  0  0  0  0
  3 37  1  0  0  0  0
  4  5  1  0  0  0  0
  4 34  1  0  0  0  0
  4 35  1  0  0  0  0
  5  6  1  0  0  0  0
  5 27  1  0  0  0  0
  6  7  2  0  0  0  0
  6  8  1  0  0  0  0
  8  9  1  0  0  0  0
  8 25  1  0  0  0  0
  8 26  1  0  0  0  0
  9 10  2  0  0  0  0
  9 18  1  0  0  0  0
 10 11  1  0  0  0  0
 10 24  1  0  0  0  0
 11 12  2  0  0  0  0
 12 13  1  0  0  0  0
 12 23  1  0  0  0  0
 13 14  2  0  0  0  0
 13 18  1  0  0  0  0
 14 15  1  0  0  0  0
 14 22  1  0  0  0  0
 15 16  2  0  0  0  0
 15 21  1  0  0  0  0
 16 17  1  0  0  0  0
 16 20  1  0  0  0  0
 17 18  2  0  0  0  0
 17 19  1  0  0  0  0
 27 28  1  0  0  0  0
 27 32  1  0  0  0  0
 27 33  1  0  0  0  0
 28 29  1  0  0  0  0
 28 30  1  0  0  0  0
 28 31  1  0  0  0  0
M  END
>  <MODEL>
       1

$$$$
best_conformers_48.pdb
 OpenBabel02042510453D

 41 43  0  0  1  0  0  0  0  0999 V2000
   12.3060   -0.7530   23.2290 C   0  0  0  0  0  0  0  0  0  0  0  0
   10.8090   -0.7860   23.4530 C   0  0  1  0  0  0  0  0  0  0  0  0
   10.1990    0.6130   23.4430 C   0  0  0  0  0  0  0  0  0  0  0  0
    8.7160    0.6380   23.8290 C   0  0  0  0  0  0  0  0  0  0  0  0
    7.8520   -0.2980   23.0960 N   0  0  0  0  0  0  0  0  0  0  0  0
    7.4130    0.0990   21.8470 C   0  0  0  0  0  0  0  0  0  0  0  0
    7.7080    1.1900   21.3930 O   0  0  0  0  0  0  0  0  0  0  0  0
    6.4780   -0.8410   21.0480 C   0  0  0  0  0  0  0  0  0  0  0  0
    5.8160   -0.1740   19.8570 C   0  0  0  0  0  0  0  0  0  0  0  0
    6.2360   -0.4370   18.5770 C   0  0  0  0  0  0  0  0  0  0  0  0
    5.7550    0.1370   17.4390 N   0  0  0  0  0  0  0  0  0  0  0  0
    4.7860    1.0110   17.5820 C   0  0  0  0  0  0  0  0  0  0  0  0
    4.2310    1.3800   18.8380 C   0  0  0  0  0  0  0  0  0  0  0  0
    3.1800    2.3290   18.9420 C   0  0  0  0  0  0  0  0  0  0  0  0
    2.6590    2.6600   20.1640 C   0  0  0  0  0  0  0  0  0  0  0  0
    3.1720    2.0550   21.3330 C   0  0  0  0  0  0  0  0  0  0  0  0
    4.1930    1.1380   21.2620 C   0  0  0  0  0  0  0  0  0  0  0  0
    4.7570    0.7760   20.0090 C   0  0  0  0  0  0  0  0  0  0  0  0
    4.5820    0.6870   22.1700 H   0  0  0  0  0  0  0  0  0  0  0  0
    2.7580    2.3280   22.2980 H   0  0  0  0  0  0  0  0  0  0  0  0
    1.8570    3.3900   20.2450 H   0  0  0  0  0  0  0  0  0  0  0  0
    2.8000    2.7920   18.0320 H   0  0  0  0  0  0  0  0  0  0  0  0
    4.3970    1.4880   16.6790 H   0  0  0  0  0  0  0  0  0  0  0  0
    7.0240   -1.1690   18.4010 H   0  0  0  0  0  0  0  0  0  0  0  0
    5.7150   -1.2650   21.7120 H   0  0  0  0  0  0  0  0  0  0  0  0
    7.0750   -1.6930   20.6930 H   0  0  0  0  0  0  0  0  0  0  0  0
    7.9950   -1.6970   23.4740 C   0  0  0  0  0  0  0  0  0  0  0  0
    9.1990   -2.4370   22.8440 C   0  0  0  0  0  0  0  0  0  0  0  0
   10.2380   -1.5850   22.4290 O   0  0  0  0  0  0  0  0  0  0  0  0
    9.6010   -3.1860   23.5520 H   0  0  0  0  0  0  0  0  0  0  0  0
    8.8850   -2.9880   21.9500 H   0  0  0  0  0  0  0  0  0  0  0  0
    8.0970   -1.7310   24.5620 H   0  0  0  0  0  0  0  0  0  0  0  0
    7.0730   -2.2330   23.2450 H   0  0  0  0  0  0  0  0  0  0  0  0
    8.3150    1.6440   23.7070 H   0  0  0  0  0  0  0  0  0  0  0  0
    8.6320    0.3820   24.8880 H   0  0  0  0  0  0  0  0  0  0  0  0
   10.3100    1.0430   22.4450 H   0  0  0  0  0  0  0  0  0  0  0  0
   10.7740    1.2580   24.1270 H   0  0  0  0  0  0  0  0  0  0  0  0
   10.6110   -1.2600   24.4240 H   0  0  0  0  0  0  0  0  0  0  0  0
   12.5380   -0.2800   22.2710 H   0  0  0  0  0  0  0  0  0  0  0  0
   12.7110   -1.7690   23.2210 H   0  0  0  0  0  0  0  0  0  0  0  0
   12.8000   -0.1910   24.0280 H   0  0  0  0  0  0  0  0  0  0  0  0
  1  2  1  0  0  0  0
  1 39  1  0  0  0  0
  1 40  1  0  0  0  0
  1 41  1  0  0  0  0
  2  3  1  0  0  0  0
  2 29  1  0  0  0  0
  2 38  1  1  0  0  0
  3  4  1  0  0  0  0
  3 36  1  0  0  0  0
  3 37  1  0  0  0  0
  4  5  1  0  0  0  0
  4 34  1  0  0  0  0
  4 35  1  0  0  0  0
  5  6  1  0  0  0  0
  5 27  1  0  0  0  0
  6  7  2  0  0  0  0
  6  8  1  0  0  0  0
  8  9  1  0  0  0  0
  8 25  1  0  0  0  0
  8 26  1  0  0  0  0
  9 10  2  0  0  0  0
  9 18  1  0  0  0  0
 10 11  1  0  0  0  0
 10 24  1  0  0  0  0
 11 12  2  0  0  0  0
 12 13  1  0  0  0  0
 12 23  1  0  0  0  0
 13 14  2  0  0  0  0
 13 18  1  0  0  0  0
 14 15  1  0  0  0  0
 14 22  1  0  0  0  0
 15 16  2  0  0  0  0
 15 21  1  0  0  0  0
 16 17  1  0  0  0  0
 16 20  1  0  0  0  0
 17 18  2  0  0  0  0
 17 19  1  0  0  0  0
 27 28  1  0  0  0  0
 27 32  1  0  0  0  0
 27 33  1  0  0  0  0
 28 29  1  0  0  0  0
 28 30  1  0  0  0  0
 28 31  1  0  0  0  0
M  END
>  <MODEL>
       2

$$$$
best_conformers_48.pdb
 OpenBabel02042510453D

 41 43  0  0  1  0  0  0  0  0999 V2000
    9.6170   -3.1910   25.0060 C   0  0  0  0  0  0  0  0  0  0  0  0
    8.1150   -3.1090   24.8500 C   0  0  1  0  0  0  0  0  0  0  0  0
    7.6820   -1.7770   24.2400 C   0  0  0  0  0  0  0  0  0  0  0  0
    6.1890   -1.6770   23.9690 C   0  0  0  0  0  0  0  0  0  0  0  0
    5.7470   -2.5020   22.8580 N   0  0  0  0  0  0  0  0  0  0  0  0
    5.5660   -2.0450   21.5700 C   0  0  0  0  0  0  0  0  0  0  0  0
    4.7870   -2.6100   20.8200 O   0  0  0  0  0  0  0  0  0  0  0  0
    6.4270   -0.8680   21.0460 C   0  0  0  0  0  0  0  0  0  0  0  0
    5.8070   -0.1740   19.8530 C   0  0  0  0  0  0  0  0  0  0  0  0
    6.2290   -0.4440   18.5740 C   0  0  0  0  0  0  0  0  0  0  0  0
    5.7530    0.1340   17.4350 N   0  0  0  0  0  0  0  0  0  0  0  0
    4.7880    1.0110   17.5810 C   0  0  0  0  0  0  0  0  0  0  0  0
    4.2270    1.3790   18.8360 C   0  0  0  0  0  0  0  0  0  0  0  0
    3.1740    2.3240   18.9420 C   0  0  0  0  0  0  0  0  0  0  0  0
    2.6420    2.6420   20.1610 C   0  0  0  0  0  0  0  0  0  0  0  0
    3.1450    2.0260   21.3300 C   0  0  0  0  0  0  0  0  0  0  0  0
    4.1680    1.1150   21.2580 C   0  0  0  0  0  0  0  0  0  0  0  0
    4.7450    0.7690   20.0070 C   0  0  0  0  0  0  0  0  0  0  0  0
    4.5410    0.6530   22.1690 H   0  0  0  0  0  0  0  0  0  0  0  0
    2.7200    2.2860   22.2940 H   0  0  0  0  0  0  0  0  0  0  0  0
    1.8360    3.3680   20.2420 H   0  0  0  0  0  0  0  0  0  0  0  0
    2.7980    2.7900   18.0320 H   0  0  0  0  0  0  0  0  0  0  0  0
    4.3980    1.4880   16.6780 H   0  0  0  0  0  0  0  0  0  0  0  0
    7.0160   -1.1800   18.4030 H   0  0  0  0  0  0  0  0  0  0  0  0
    6.6910   -0.1510   21.8350 H   0  0  0  0  0  0  0  0  0  0  0  0
    7.3840   -1.3060   20.7230 H   0  0  0  0  0  0  0  0  0  0  0  0
    5.4460   -3.9100   23.1130 C   0  0  0  0  0  0  0  0  0  0  0  0
    6.3320   -4.5510   24.1900 C   0  0  0  0  0  0  0  0  0  0  0  0
    7.7010   -4.2330   24.0900 O   0  0  0  0  0  0  0  0  0  0  0  0
    6.2710   -5.6440   24.1050 H   0  0  0  0  0  0  0  0  0  0  0  0
    5.9710   -4.2950   25.1950 H   0  0  0  0  0  0  0  0  0  0  0  0
    4.3900   -4.0590   23.3860 H   0  0  0  0  0  0  0  0  0  0  0  0
    5.5990   -4.4560   22.1790 H   0  0  0  0  0  0  0  0  0  0  0  0
    5.6360   -1.9800   24.8620 H   0  0  0  0  0  0  0  0  0  0  0  0
    5.8920   -0.6430   23.7890 H   0  0  0  0  0  0  0  0  0  0  0  0
    7.9980   -0.9700   24.9160 H   0  0  0  0  0  0  0  0  0  0  0  0
    8.2060   -1.6280   23.2940 H   0  0  0  0  0  0  0  0  0  0  0  0
    7.6470   -3.2050   25.8380 H   0  0  0  0  0  0  0  0  0  0  0  0
    9.9070   -4.1420   25.4600 H   0  0  0  0  0  0  0  0  0  0  0  0
    9.9720   -2.3790   25.6500 H   0  0  0  0  0  0  0  0  0  0  0  0
   10.1130   -3.1040   24.0350 H   0  0  0  0  0  0  0  0  0  0  0  0
  1  2  1  0  0  0  0
  1 39  1  0  0  0  0
  1 40  1  0  0  0  0
  1 41  1  0  0  0  0
  2  3  1  0  0  0  0
  2 29  1  0  0  0  0
  2 38  1  1  0  0  0
  3  4  1  0  0  0  0
  3 36  1  0  0  0  0
  3 37  1  0  0  0  0
  4  5  1  0  0  0  0
  4 34  1  0  0  0  0
  4 35  1  0  0  0  0
  5  6  1  0  0  0  0
  5 27  1  0  0  0  0
  6  7  2  0  0  0  0
  6  8  1  0  0  0  0
  8  9  1  0  0  0  0
  8 25  1  0  0  0  0
  8 26  1  0  0  0  0
  9 10  2  0  0  0  0
  9 18  1  0  0  0  0
 10 11  1  0  0  0  0
 10 24  1  0  0  0  0
 11 12  2  0  0  0  0
 12 13  1  0  0  0  0
 12 23  1  0  0  0  0
 13 14  2  0  0  0  0
 13 18  1  0  0  0  0
 14 15  1  0  0  0  0
 14 22  1  0  0  0  0
 15 16  2  0  0  0  0
 15 21  1  0  0  0  0
 16 17  1  0  0  0  0
 16 20  1  0  0  0  0
 17 18  2  0  0  0  0
 17 19  1  0  0  0  0
 27 28  1  0  0  0  0
 27 32  1  0  0  0  0
 27 33  1  0  0  0  0
 28 29  1  0  0  0  0
 28 30  1  0  0  0  0
 28 31  1  0  0  0  0
M  END
>  <MODEL>
       3

$$$$
best_conformers_48.pdb
 OpenBabel02042510453D

 41 43  0  0  1  0  0  0  0  0999 V2000
    8.7880   -5.1840   24.7440 C   0  0  0  0  0  0  0  0  0  0  0  0
    7.8630   -4.1270   24.1690 C   0  0  1  0  0  0  0  0  0  0  0  0
    6.3940   -4.5580   24.1830 C   0  0  0  0  0  0  0  0  0  0  0  0
    5.5160   -3.9390   23.0850 C   0  0  0  0  0  0  0  0  0  0  0  0
    5.7650   -2.5150   22.8470 N   0  0  0  0  0  0  0  0  0  0  0  0
    5.5660   -2.0530   21.5600 C   0  0  0  0  0  0  0  0  0  0  0  0
    4.7950   -2.6230   20.8100 O   0  0  0  0  0  0  0  0  0  0  0  0
    6.4220   -0.8670   21.0460 C   0  0  0  0  0  0  0  0  0  0  0  0
    5.8050   -0.1730   19.8520 C   0  0  0  0  0  0  0  0  0  0  0  0
    6.2300   -0.4450   18.5770 C   0  0  0  0  0  0  0  0  0  0  0  0
    5.7550    0.1340   17.4380 N   0  0  0  0  0  0  0  0  0  0  0  0
    4.7890    1.0100   17.5830 C   0  0  0  0  0  0  0  0  0  0  0  0
    4.2280    1.3770   18.8350 C   0  0  0  0  0  0  0  0  0  0  0  0
    3.1750    2.3220   18.9410 C   0  0  0  0  0  0  0  0  0  0  0  0
    2.6420    2.6410   20.1610 C   0  0  0  0  0  0  0  0  0  0  0  0
    3.1440    2.0260   21.3310 C   0  0  0  0  0  0  0  0  0  0  0  0
    4.1680    1.1150   21.2580 C   0  0  0  0  0  0  0  0  0  0  0  0
    4.7440    0.7670   20.0070 C   0  0  0  0  0  0  0  0  0  0  0  0
    4.5410    0.6530   22.1700 H   0  0  0  0  0  0  0  0  0  0  0  0
    2.7200    2.2870   22.2960 H   0  0  0  0  0  0  0  0  0  0  0  0
    1.8360    3.3680   20.2420 H   0  0  0  0  0  0  0  0  0  0  0  0
    2.8010    2.7880   18.0320 H   0  0  0  0  0  0  0  0  0  0  0  0
    4.4010    1.4850   16.6790 H   0  0  0  0  0  0  0  0  0  0  0  0
    7.0180   -1.1800   18.4030 H   0  0  0  0  0  0  0  0  0  0  0  0
    7.3790   -1.3020   20.7210 H   0  0  0  0  0  0  0  0  0  0  0  0
    6.6850   -0.1550   21.8400 H   0  0  0  0  0  0  0  0  0  0  0  0
    6.1850   -1.6820   23.9570 C   0  0  0  0  0  0  0  0  0  0  0  0
    7.6790   -1.7640   24.2500 C   0  0  0  0  0  0  0  0  0  0  0  0
    8.0740   -2.9390   24.9190 O   0  0  0  0  0  0  0  0  0  0  0  0
    7.9850   -0.9310   24.8920 H   0  0  0  0  0  0  0  0  0  0  0  0
    8.2160   -1.6760   23.2960 H   0  0  0  0  0  0  0  0  0  0  0  0
    5.8790   -0.6470   23.7710 H   0  0  0  0  0  0  0  0  0  0  0  0
    5.6450   -2.0010   24.8520 H   0  0  0  0  0  0  0  0  0  0  0  0
    5.7210   -4.4530   22.1410 H   0  0  0  0  0  0  0  0  0  0  0  0
    4.4560   -4.1250   23.3080 H   0  0  0  0  0  0  0  0  0  0  0  0
    5.9920   -4.3510   25.1770 H   0  0  0  0  0  0  0  0  0  0  0  0
    6.3440   -5.6490   24.0720 H   0  0  0  0  0  0  0  0  0  0  0  0
    8.1590   -3.9390   23.1290 H   0  0  0  0  0  0  0  0  0  0  0  0
    8.5120   -5.4280   25.7760 H   0  0  0  0  0  0  0  0  0  0  0  0
    8.7480   -6.1020   24.1460 H   0  0  0  0  0  0  0  0  0  0  0  0
    9.8200   -4.8190   24.7420 H   0  0  0  0  0  0  0  0  0  0  0  0
  1  2  1  0  0  0  0
  1 39  1  0  0  0  0
  1 40  1  0  0  0  0
  1 41  1  0  0  0  0
  2  3  1  0  0  0  0
  2 29  1  0  0  0  0
  2 38  1  6  0  0  0
  3  4  1  0  0  0  0
  3 36  1  0  0  0  0
  3 37  1  0  0  0  0
  4  5  1  0  0  0  0
  4 34  1  0  0  0  0
  4 35  1  0  0  0  0
  5  6  1  0  0  0  0
  5 27  1  0  0  0  0
  6  7  2  0  0  0  0
  6  8  1  0  0  0  0
  8  9  1  0  0  0  0
  8 25  1  0  0  0  0
  8 26  1  0  0  0  0
  9 10  2  0  0  0  0
  9 18  1  0  0  0  0
 10 11  1  0  0  0  0
 10 24  1  0  0  0  0
 11 12  2  0  0  0  0
 12 13  1  0  0  0  0
 12 23  1  0  0  0  0
 13 14  2  0  0  0  0
 13 18  1  0  0  0  0
 14 15  1  0  0  0  0
 14 22  1  0  0  0  0
 15 16  2  0  0  0  0
 15 21  1  0  0  0  0
 16 17  1  0  0  0  0
 16 20  1  0  0  0  0
 17 18  2  0  0  0  0
 17 19  1  0  0  0  0
 27 28  1  0  0  0  0
 27 32  1  0  0  0  0
 27 33  1  0  0  0  0
 28 29  1  0  0  0  0
 28 30  1  0  0  0  0
 28 31  1  0  0  0  0
M  END
>  <MODEL>
       4

$$$$
best_conformers_48.pdb
 OpenBabel02042510453D

 41 43  0  0  1  0  0  0  0  0999 V2000
    5.8260    2.0680   26.0720 C   0  0  0  0  0  0  0  0  0  0  0  0
    6.4840    1.1770   25.0380 C   0  0  1  0  0  0  0  0  0  0  0  0
    7.7950    1.7730   24.5180 C   0  0  0  0  0  0  0  0  0  0  0  0
    8.7000    0.7590   23.7970 C   0  0  0  0  0  0  0  0  0  0  0  0
    7.9920   -0.2650   23.0150 N   0  0  0  0  0  0  0  0  0  0  0  0
    7.4780    0.1120   21.7900 C   0  0  0  0  0  0  0  0  0  0  0  0
    7.8190    1.1610   21.2730 O   0  0  0  0  0  0  0  0  0  0  0  0
    6.4900   -0.8240   21.0460 C   0  0  0  0  0  0  0  0  0  0  0  0
    5.8160   -0.1720   19.8550 C   0  0  0  0  0  0  0  0  0  0  0  0
    6.2370   -0.4360   18.5750 C   0  0  0  0  0  0  0  0  0  0  0  0
    5.7540    0.1360   17.4370 N   0  0  0  0  0  0  0  0  0  0  0  0
    4.7860    1.0110   17.5800 C   0  0  0  0  0  0  0  0  0  0  0  0
    4.2310    1.3800   18.8380 C   0  0  0  0  0  0  0  0  0  0  0  0
    3.1810    2.3310   18.9420 C   0  0  0  0  0  0  0  0  0  0  0  0
    2.6610    2.6630   20.1650 C   0  0  0  0  0  0  0  0  0  0  0  0
    3.1700    2.0560   21.3350 C   0  0  0  0  0  0  0  0  0  0  0  0
    4.1880    1.1350   21.2600 C   0  0  0  0  0  0  0  0  0  0  0  0
    4.7540    0.7740   20.0080 C   0  0  0  0  0  0  0  0  0  0  0  0
    4.5700    0.6790   22.1700 H   0  0  0  0  0  0  0  0  0  0  0  0
    2.7550    2.3270   22.3000 H   0  0  0  0  0  0  0  0  0  0  0  0
    1.8610    3.3940   20.2450 H   0  0  0  0  0  0  0  0  0  0  0  0
    2.8010    2.7960   18.0340 H   0  0  0  0  0  0  0  0  0  0  0  0
    4.3970    1.4890   16.6780 H   0  0  0  0  0  0  0  0  0  0  0  0
    7.0260   -1.1680   18.4040 H   0  0  0  0  0  0  0  0  0  0  0  0
    7.0680   -1.6890   20.6930 H   0  0  0  0  0  0  0  0  0  0  0  0
    5.7360   -1.2260   21.7360 H   0  0  0  0  0  0  0  0  0  0  0  0
    7.5710   -1.4390   23.7630 C   0  0  0  0  0  0  0  0  0  0  0  0
    6.4260   -1.1940   24.7500 C   0  0  0  0  0  0  0  0  0  0  0  0
    6.6610   -0.1080   25.6200 O   0  0  0  0  0  0  0  0  0  0  0  0
    5.4830   -1.0340   24.2070 H   0  0  0  0  0  0  0  0  0  0  0  0
    6.2830   -2.0790   25.3870 H   0  0  0  0  0  0  0  0  0  0  0  0
    8.4360   -1.7850   24.3360 H   0  0  0  0  0  0  0  0  0  0  0  0
    7.3120   -2.2470   23.0730 H   0  0  0  0  0  0  0  0  0  0  0  0
    9.3940    1.2850   23.1380 H   0  0  0  0  0  0  0  0  0  0  0  0
    9.3010    0.2340   24.5430 H   0  0  0  0  0  0  0  0  0  0  0  0
    7.5500    2.5920   23.8310 H   0  0  0  0  0  0  0  0  0  0  0  0
    8.3490    2.2270   25.3530 H   0  0  0  0  0  0  0  0  0  0  0  0
    5.7990    1.0720   24.1880 H   0  0  0  0  0  0  0  0  0  0  0  0
    4.8710    1.6390   26.3870 H   0  0  0  0  0  0  0  0  0  0  0  0
    6.4660    2.1700   26.9530 H   0  0  0  0  0  0  0  0  0  0  0  0
    5.6380    3.0610   25.6530 H   0  0  0  0  0  0  0  0  0  0  0  0
  1  2  1  0  0  0  0
  1 39  1  0  0  0  0
  1 40  1  0  0  0  0
  1 41  1  0  0  0  0
  2  3  1  0  0  0  0
  2 29  1  0  0  0  0
  2 38  1  6  0  0  0
  3  4  1  0  0  0  0
  3 36  1  0  0  0  0
  3 37  1  0  0  0  0
  4  5  1  0  0  0  0
  4 34  1  0  0  0  0
  4 35  1  0  0  0  0
  5  6  1  0  0  0  0
  5 27  1  0  0  0  0
  6  7  2  0  0  0  0
  6  8  1  0  0  0  0
  8  9  1  0  0  0  0
  8 25  1  0  0  0  0
  8 26  1  0  0  0  0
  9 10  2  0  0  0  0
  9 18  1  0  0  0  0
 10 11  1  0  0  0  0
 10 24  1  0  0  0  0
 11 12  2  0  0  0  0
 12 13  1  0  0  0  0
 12 23  1  0  0  0  0
 13 14  2  0  0  0  0
 13 18  1  0  0  0  0
 14 15  1  0  0  0  0
 14 22  1  0  0  0  0
 15 16  2  0  0  0  0
 15 21  1  0  0  0  0
 16 17  1  0  0  0  0
 16 20  1  0  0  0  0
 17 18  2  0  0  0  0
 17 19  1  0  0  0  0
 27 28  1  0  0  0  0
 27 32  1  0  0  0  0
 27 33  1  0  0  0  0
 28 29  1  0  0  0  0
 28 30  1  0  0  0  0
 28 31  1  0  0  0  0
M  END
>  <MODEL>
       5

$$$$
best_conformers_48.pdb
 OpenBabel02042510453D

 41 43  0  0  1  0  0  0  0  0999 V2000
    7.2340   -4.5040   26.3860 C   0  0  0  0  0  0  0  0  0  0  0  0
    6.7060   -4.0980   25.0300 C   0  0  1  0  0  0  0  0  0  0  0  0
    7.8400   -3.9030   24.0220 C   0  0  0  0  0  0  0  0  0  0  0  0
    7.5530   -2.8960   22.9120 C   0  0  0  0  0  0  0  0  0  0  0  0
    6.3390   -3.1500   22.1470 N   0  0  0  0  0  0  0  0  0  0  0  0
    5.6760   -2.1420   21.4820 C   0  0  0  0  0  0  0  0  0  0  0  0
    4.4940   -2.2600   21.2230 O   0  0  0  0  0  0  0  0  0  0  0  0
    6.4640   -0.8920   21.0260 C   0  0  0  0  0  0  0  0  0  0  0  0
    5.8140   -0.1780   19.8540 C   0  0  0  0  0  0  0  0  0  0  0  0
    6.2310   -0.4430   18.5780 C   0  0  0  0  0  0  0  0  0  0  0  0
    5.7520    0.1330   17.4410 N   0  0  0  0  0  0  0  0  0  0  0  0
    4.7880    1.0110   17.5850 C   0  0  0  0  0  0  0  0  0  0  0  0
    4.2290    1.3760   18.8360 C   0  0  0  0  0  0  0  0  0  0  0  0
    3.1750    2.3220   18.9410 C   0  0  0  0  0  0  0  0  0  0  0  0
    2.6400    2.6390   20.1590 C   0  0  0  0  0  0  0  0  0  0  0  0
    3.1390    2.0210   21.3290 C   0  0  0  0  0  0  0  0  0  0  0  0
    4.1640    1.1080   21.2560 C   0  0  0  0  0  0  0  0  0  0  0  0
    4.7450    0.7620   20.0100 C   0  0  0  0  0  0  0  0  0  0  0  0
    4.5260    0.6280   22.1620 H   0  0  0  0  0  0  0  0  0  0  0  0
    2.7080    2.2780   22.2930 H   0  0  0  0  0  0  0  0  0  0  0  0
    1.8320    3.3650   20.2380 H   0  0  0  0  0  0  0  0  0  0  0  0
    2.8010    2.7900   18.0300 H   0  0  0  0  0  0  0  0  0  0  0  0
    4.4000    1.4850   16.6800 H   0  0  0  0  0  0  0  0  0  0  0  0
    7.0170   -1.1780   18.4010 H   0  0  0  0  0  0  0  0  0  0  0  0
    7.4810   -1.1950   20.7400 H   0  0  0  0  0  0  0  0  0  0  0  0
    6.5780   -0.2050   21.8760 H   0  0  0  0  0  0  0  0  0  0  0  0
    5.6510   -4.4370   22.2500 C   0  0  0  0  0  0  0  0  0  0  0  0
    4.9420   -4.6830   23.5820 C   0  0  0  0  0  0  0  0  0  0  0  0
    5.7950   -5.1050   24.6210 O   0  0  0  0  0  0  0  0  0  0  0  0
    4.4170   -3.7620   23.8680 H   0  0  0  0  0  0  0  0  0  0  0  0
    4.1910   -5.4750   23.4720 H   0  0  0  0  0  0  0  0  0  0  0  0
    4.9250   -4.4900   21.4350 H   0  0  0  0  0  0  0  0  0  0  0  0
    6.3770   -5.2380   22.1030 H   0  0  0  0  0  0  0  0  0  0  0  0
    7.4620   -1.9100   23.3830 H   0  0  0  0  0  0  0  0  0  0  0  0
    8.4150   -2.8460   22.2350 H   0  0  0  0  0  0  0  0  0  0  0  0
    8.7260   -3.5370   24.5570 H   0  0  0  0  0  0  0  0  0  0  0  0
    8.1280   -4.8740   23.6130 H   0  0  0  0  0  0  0  0  0  0  0  0
    6.1570   -3.1560   25.1460 H   0  0  0  0  0  0  0  0  0  0  0  0
    7.8550   -5.3890   26.2280 H   0  0  0  0  0  0  0  0  0  0  0  0
    7.8720   -3.7300   26.8290 H   0  0  0  0  0  0  0  0  0  0  0  0
    6.4080   -4.7080   27.0810 H   0  0  0  0  0  0  0  0  0  0  0  0
  1  2  1  0  0  0  0
  1 39  1  0  0  0  0
  1 40  1  0  0  0  0
  1 41  1  0  0  0  0
  2  3  1  0  0  0  0
  2 29  1  0  0  0  0
  2 38  1  1  0  0  0
  3  4  1  0  0  0  0
  3 36  1  0  0  0  0
  3 37  1  0  0  0  0
  4  5  1  0  0  0  0
  4 34  1  0  0  0  0
  4 35  1  0  0  0  0
  5  6  1  0  0  0  0
  5 27  1  0  0  0  0
  6  7  2  0  0  0  0
  6  8  1  0  0  0  0
  8  9  1  0  0  0  0
  8 25  1  0  0  0  0
  8 26  1  0  0  0  0
  9 10  2  0  0  0  0
  9 18  1  0  0  0  0
 10 11  1  0  0  0  0
 10 24  1  0  0  0  0
 11 12  2  0  0  0  0
 12 13  1  0  0  0  0
 12 23  1  0  0  0  0
 13 14  2  0  0  0  0
 13 18  1  0  0  0  0
 14 15  1  0  0  0  0
 14 22  1  0  0  0  0
 15 16  2  0  0  0  0
 15 21  1  0  0  0  0
 16 17  1  0  0  0  0
 16 20  1  0  0  0  0
 17 18  2  0  0  0  0
 17 19  1  0  0  0  0
 27 28  1  0  0  0  0
 27 32  1  0  0  0  0
 27 33  1  0  0  0  0
 28 29  1  0  0  0  0
 28 30  1  0  0  0  0
 28 31  1  0  0  0  0
M  END
>  <MODEL>
       6

$$$$
best_conformers_48.pdb
 OpenBabel02042510453D

 41 43  0  0  1  0  0  0  0  0999 V2000
   11.2510   -2.2750   24.2160 C   0  0  0  0  0  0  0  0  0  0  0  0
    9.9060   -1.5780   24.1860 C   0  0  1  0  0  0  0  0  0  0  0  0
   10.0240   -0.1320   23.7050 C   0  0  0  0  0  0  0  0  0  0  0  0
    8.7160    0.6610   23.8150 C   0  0  0  0  0  0  0  0  0  0  0  0
    7.5430    0.0040   23.2200 N   0  0  0  0  0  0  0  0  0  0  0  0
    7.3920    0.1240   21.8520 C   0  0  0  0  0  0  0  0  0  0  0  0
    7.9850    0.9940   21.2380 O   0  0  0  0  0  0  0  0  0  0  0  0
    6.4640   -0.8340   21.0580 C   0  0  0  0  0  0  0  0  0  0  0  0
    5.8130   -0.1730   19.8550 C   0  0  0  0  0  0  0  0  0  0  0  0
    6.2370   -0.4360   18.5750 C   0  0  0  0  0  0  0  0  0  0  0  0
    5.7550    0.1370   17.4360 N   0  0  0  0  0  0  0  0  0  0  0  0
    4.7860    1.0110   17.5800 C   0  0  0  0  0  0  0  0  0  0  0  0
    4.2290    1.3800   18.8370 C   0  0  0  0  0  0  0  0  0  0  0  0
    3.1780    2.3290   18.9410 C   0  0  0  0  0  0  0  0  0  0  0  0
    2.6570    2.6580   20.1640 C   0  0  0  0  0  0  0  0  0  0  0  0
    3.1680    2.0520   21.3330 C   0  0  0  0  0  0  0  0  0  0  0  0
    4.1870    1.1340   21.2590 C   0  0  0  0  0  0  0  0  0  0  0  0
    4.7510    0.7740   20.0070 C   0  0  0  0  0  0  0  0  0  0  0  0
    4.5720    0.6860   22.1700 H   0  0  0  0  0  0  0  0  0  0  0  0
    2.7530    2.3210   22.2990 H   0  0  0  0  0  0  0  0  0  0  0  0
    1.8550    3.3880   20.2450 H   0  0  0  0  0  0  0  0  0  0  0  0
    2.7990    2.7930   18.0330 H   0  0  0  0  0  0  0  0  0  0  0  0
    4.3970    1.4890   16.6780 H   0  0  0  0  0  0  0  0  0  0  0  0
    7.0250   -1.1700   18.4040 H   0  0  0  0  0  0  0  0  0  0  0  0
    7.1010   -1.6550   20.6980 H   0  0  0  0  0  0  0  0  0  0  0  0
    5.7000   -1.2910   21.6940 H   0  0  0  0  0  0  0  0  0  0  0  0
    7.0080   -1.1090   23.9880 C   0  0  0  0  0  0  0  0  0  0  0  0
    7.7250   -2.4560   23.7760 C   0  0  0  0  0  0  0  0  0  0  0  0
    9.0540   -2.3260   23.3320 O   0  0  0  0  0  0  0  0  0  0  0  0
    7.7110   -3.0460   24.7120 H   0  0  0  0  0  0  0  0  0  0  0  0
    7.2010   -3.0520   23.0210 H   0  0  0  0  0  0  0  0  0  0  0  0
    7.0910   -0.8360   25.0430 H   0  0  0  0  0  0  0  0  0  0  0  0
    5.9390   -1.2160   23.8040 H   0  0  0  0  0  0  0  0  0  0  0  0
    8.4930    0.8130   24.8740 H   0  0  0  0  0  0  0  0  0  0  0  0
    8.8300    1.6450   23.3600 H   0  0  0  0  0  0  0  0  0  0  0  0
   10.8160    0.3750   24.2800 H   0  0  0  0  0  0  0  0  0  0  0  0
   10.3470   -0.1370   22.6600 H   0  0  0  0  0  0  0  0  0  0  0  0
    9.4890   -1.5870   25.2030 H   0  0  0  0  0  0  0  0  0  0  0  0
   11.9300   -1.7650   24.9070 H   0  0  0  0  0  0  0  0  0  0  0  0
   11.1370   -3.3100   24.5500 H   0  0  0  0  0  0  0  0  0  0  0  0
   11.7020   -2.2800   23.2210 H   0  0  0  0  0  0  0  0  0  0  0  0
  1  2  1  0  0  0  0
  1 39  1  0  0  0  0
  1 40  1  0  0  0  0
  1 41  1  0  0  0  0
  2  3  1  0  0  0  0
  2 29  1  0  0  0  0
  2 38  1  1  0  0  0
  3  4  1  0  0  0  0
  3 36  1  0  0  0  0
  3 37  1  0  0  0  0
  4  5  1  0  0  0  0
  4 34  1  0  0  0  0
  4 35  1  0  0  0  0
  5  6  1  0  0  0  0
  5 27  1  0  0  0  0
  6  7  2  0  0  0  0
  6  8  1  0  0  0  0
  8  9  1  0  0  0  0
  8 25  1  0  0  0  0
  8 26  1  0  0  0  0
  9 10  2  0  0  0  0
  9 18  1  0  0  0  0
 10 11  1  0  0  0  0
 10 24  1  0  0  0  0
 11 12  2  0  0  0  0
 12 13  1  0  0  0  0
 12 23  1  0  0  0  0
 13 14  2  0  0  0  0
 13 18  1  0  0  0  0
 14 15  1  0  0  0  0
 14 22  1  0  0  0  0
 15 16  2  0  0  0  0
 15 21  1  0  0  0  0
 16 17  1  0  0  0  0
 16 20  1  0  0  0  0
 17 18  2  0  0  0  0
 17 19  1  0  0  0  0
 27 28  1  0  0  0  0
 27 32  1  0  0  0  0
 27 33  1  0  0  0  0
 28 29  1  0  0  0  0
 28 30  1  0  0  0  0
 28 31  1  0  0  0  0
M  END
>  <MODEL>
       7

$$$$
best_conformers_48.pdb
 OpenBabel02042510453D

 41 43  0  0  1  0  0  0  0  0999 V2000
    4.4300    0.2880   26.2600 C   0  0  0  0  0  0  0  0  0  0  0  0
    5.7170    0.2110   25.4680 C   0  0  1  0  0  0  0  0  0  0  0  0
    5.8040   -1.0710   24.6420 C   0  0  0  0  0  0  0  0  0  0  0  0
    7.1490   -1.2720   23.9380 C   0  0  0  0  0  0  0  0  0  0  0  0
    7.6540   -0.1270   23.1940 N   0  0  0  0  0  0  0  0  0  0  0  0
    7.3750    0.1330   21.8680 C   0  0  0  0  0  0  0  0  0  0  0  0
    7.8610    1.1030   21.3110 O   0  0  0  0  0  0  0  0  0  0  0  0
    6.4680   -0.8290   21.0550 C   0  0  0  0  0  0  0  0  0  0  0  0
    5.8140   -0.1710   19.8550 C   0  0  0  0  0  0  0  0  0  0  0  0
    6.2380   -0.4360   18.5760 C   0  0  0  0  0  0  0  0  0  0  0  0
    5.7560    0.1370   17.4360 N   0  0  0  0  0  0  0  0  0  0  0  0
    4.7860    1.0110   17.5810 C   0  0  0  0  0  0  0  0  0  0  0  0
    4.2300    1.3790   18.8380 C   0  0  0  0  0  0  0  0  0  0  0  0
    3.1800    2.3300   18.9430 C   0  0  0  0  0  0  0  0  0  0  0  0
    2.6590    2.6590   20.1650 C   0  0  0  0  0  0  0  0  0  0  0  0
    3.1690    2.0510   21.3350 C   0  0  0  0  0  0  0  0  0  0  0  0
    4.1860    1.1310   21.2630 C   0  0  0  0  0  0  0  0  0  0  0  0
    4.7520    0.7730   20.0080 C   0  0  0  0  0  0  0  0  0  0  0  0
    4.5710    0.6890   22.1790 H   0  0  0  0  0  0  0  0  0  0  0  0
    2.7560    2.3230   22.3010 H   0  0  0  0  0  0  0  0  0  0  0  0
    1.8580    3.3910   20.2460 H   0  0  0  0  0  0  0  0  0  0  0  0
    2.8010    2.7940   18.0340 H   0  0  0  0  0  0  0  0  0  0  0  0
    4.3970    1.4880   16.6780 H   0  0  0  0  0  0  0  0  0  0  0  0
    7.0260   -1.1700   18.4040 H   0  0  0  0  0  0  0  0  0  0  0  0
    7.1130   -1.6410   20.6960 H   0  0  0  0  0  0  0  0  0  0  0  0
    5.7060   -1.3000   21.6900 H   0  0  0  0  0  0  0  0  0  0  0  0
    8.1430    0.9900   24.0060 C   0  0  0  0  0  0  0  0  0  0  0  0
    7.0440    1.9510   24.5150 C   0  0  0  0  0  0  0  0  0  0  0  0
    5.7700    1.3550   24.6250 O   0  0  0  0  0  0  0  0  0  0  0  0
    7.3350    2.3810   25.4940 H   0  0  0  0  0  0  0  0  0  0  0  0
    6.9280    2.7890   23.8200 H   0  0  0  0  0  0  0  0  0  0  0  0
    8.6590    0.5670   24.8730 H   0  0  0  0  0  0  0  0  0  0  0  0
    8.8820    1.5490   23.4330 H   0  0  0  0  0  0  0  0  0  0  0  0
    7.9000   -1.4980   24.6990 H   0  0  0  0  0  0  0  0  0  0  0  0
    7.1200   -2.1390   23.2760 H   0  0  0  0  0  0  0  0  0  0  0  0
    5.6000   -1.9340   25.2950 H   0  0  0  0  0  0  0  0  0  0  0  0
    5.0030   -1.0460   23.8960 H   0  0  0  0  0  0  0  0  0  0  0  0
    6.5610    0.2460   26.1690 H   0  0  0  0  0  0  0  0  0  0  0  0
    4.3600   -0.5500   26.9610 H   0  0  0  0  0  0  0  0  0  0  0  0
    4.3890    1.2200   26.8310 H   0  0  0  0  0  0  0  0  0  0  0  0
    3.5680    0.2570   25.5880 H   0  0  0  0  0  0  0  0  0  0  0  0
  1  2  1  0  0  0  0
  1 39  1  0  0  0  0
  1 40  1  0  0  0  0
  1 41  1  0  0  0  0
  2  3  1  0  0  0  0
  2 29  1  0  0  0  0
  2 38  1  1  0  0  0
  3  4  1  0  0  0  0
  3 36  1  0  0  0  0
  3 37  1  0  0  0  0
  4  5  1  0  0  0  0
  4 34  1  0  0  0  0
  4 35  1  0  0  0  0
  5  6  1  0  0  0  0
  5 27  1  0  0  0  0
  6  7  2  0  0  0  0
  6  8  1  0  0  0  0
  8  9  1  0  0  0  0
  8 25  1  0  0  0  0
  8 26  1  0  0  0  0
  9 10  2  0  0  0  0
  9 18  1  0  0  0  0
 10 11  1  0  0  0  0
 10 24  1  0  0  0  0
 11 12  2  0  0  0  0
 12 13  1  0  0  0  0
 12 23  1  0  0  0  0
 13 14  2  0  0  0  0
 13 18  1  0  0  0  0
 14 15  1  0  0  0  0
 14 22  1  0  0  0  0
 15 16  2  0  0  0  0
 15 21  1  0  0  0  0
 16 17  1  0  0  0  0
 16 20  1  0  0  0  0
 17 18  2  0  0  0  0
 17 19  1  0  0  0  0
 27 28  1  0  0  0  0
 27 32  1  0  0  0  0
 27 33  1  0  0  0  0
 28 29  1  0  0  0  0
 28 30  1  0  0  0  0
 28 31  1  0  0  0  0
M  END
>  <MODEL>
       8

$$$$
best_conformers_48.pdb
 OpenBabel02042510453D

 41 43  0  0  1  0  0  0  0  0999 V2000
   10.8640   -1.7750   26.1460 C   0  0  0  0  0  0  0  0  0  0  0  0
   10.5450   -1.7020   24.6670 C   0  0  1  0  0  0  0  0  0  0  0  0
    9.0460   -1.7580   24.3950 C   0  0  0  0  0  0  0  0  0  0  0  0
    8.6610   -1.8430   22.9160 C   0  0  0  0  0  0  0  0  0  0  0  0
    8.7050   -0.5740   22.1990 N   0  0  0  0  0  0  0  0  0  0  0  0
    7.5840    0.0410   21.6690 C   0  0  0  0  0  0  0  0  0  0  0  0
    7.4840    1.2530   21.6350 O   0  0  0  0  0  0  0  0  0  0  0  0
    6.4960   -0.8520   21.0270 C   0  0  0  0  0  0  0  0  0  0  0  0
    5.8070   -0.1800   19.8540 C   0  0  0  0  0  0  0  0  0  0  0  0
    6.2340   -0.4380   18.5760 C   0  0  0  0  0  0  0  0  0  0  0  0
    5.7570    0.1390   17.4390 N   0  0  0  0  0  0  0  0  0  0  0  0
    4.7860    1.0110   17.5830 C   0  0  0  0  0  0  0  0  0  0  0  0
    4.2300    1.3800   18.8380 C   0  0  0  0  0  0  0  0  0  0  0  0
    3.1790    2.3300   18.9400 C   0  0  0  0  0  0  0  0  0  0  0  0
    2.6590    2.6640   20.1610 C   0  0  0  0  0  0  0  0  0  0  0  0
    3.1730    2.0620   21.3320 C   0  0  0  0  0  0  0  0  0  0  0  0
    4.1920    1.1440   21.2610 C   0  0  0  0  0  0  0  0  0  0  0  0
    4.7530    0.7760   20.0100 C   0  0  0  0  0  0  0  0  0  0  0  0
    4.5950    0.7100   22.1710 H   0  0  0  0  0  0  0  0  0  0  0  0
    2.7620    2.3390   22.2970 H   0  0  0  0  0  0  0  0  0  0  0  0
    1.8580    3.3950   20.2400 H   0  0  0  0  0  0  0  0  0  0  0  0
    2.8000    2.7910   18.0280 H   0  0  0  0  0  0  0  0  0  0  0  0
    4.3980    1.4870   16.6790 H   0  0  0  0  0  0  0  0  0  0  0  0
    7.0240   -1.1690   18.4030 H   0  0  0  0  0  0  0  0  0  0  0  0
    5.7660   -1.1340   21.7940 H   0  0  0  0  0  0  0  0  0  0  0  0
    6.9590   -1.7860   20.6770 H   0  0  0  0  0  0  0  0  0  0  0  0
    9.9510    0.1940   22.1270 C   0  0  0  0  0  0  0  0  0  0  0  0
   11.1800   -0.4540   22.7550 C   0  0  0  0  0  0  0  0  0  0  0  0
   11.1500   -0.5280   24.1600 O   0  0  0  0  0  0  0  0  0  0  0  0
   11.3560   -1.4500   22.3270 H   0  0  0  0  0  0  0  0  0  0  0  0
   12.0650    0.1490   22.5080 H   0  0  0  0  0  0  0  0  0  0  0  0
   10.1760    0.3690   21.0690 H   0  0  0  0  0  0  0  0  0  0  0  0
    9.8270    1.1850   22.5760 H   0  0  0  0  0  0  0  0  0  0  0  0
    7.6470   -2.2280   22.8380 H   0  0  0  0  0  0  0  0  0  0  0  0
    9.3120   -2.5720   22.4210 H   0  0  0  0  0  0  0  0  0  0  0  0
    8.5720   -0.8820   24.8390 H   0  0  0  0  0  0  0  0  0  0  0  0
    8.6460   -2.6350   24.9220 H   0  0  0  0  0  0  0  0  0  0  0  0
   11.0200   -2.5550   24.1630 H   0  0  0  0  0  0  0  0  0  0  0  0
   10.3920   -0.9470   26.6840 H   0  0  0  0  0  0  0  0  0  0  0  0
   10.4910   -2.7160   26.5640 H   0  0  0  0  0  0  0  0  0  0  0  0
   11.9440   -1.7280   26.3110 H   0  0  0  0  0  0  0  0  0  0  0  0
  1  2  1  0  0  0  0
  1 39  1  0  0  0  0
  1 40  1  0  0  0  0
  1 41  1  0  0  0  0
  2  3  1  0  0  0  0
  2 29  1  0  0  0  0
  2 38  1  6  0  0  0
  3  4  1  0  0  0  0
  3 36  1  0  0  0  0
  3 37  1  0  0  0  0
  4  5  1  0  0  0  0
  4 34  1  0  0  0  0
  4 35  1  0  0  0  0
  5  6  1  0  0  0  0
  5 27  1  0  0  0  0
  6  7  2  0  0  0  0
  6  8  1  0  0  0  0
  8  9  1  0  0  0  0
  8 25  1  0  0  0  0
  8 26  1  0  0  0  0
  9 10  2  0  0  0  0
  9 18  1  0  0  0  0
 10 11  1  0  0  0  0
 10 24  1  0  0  0  0
 11 12  2  0  0  0  0
 12 13  1  0  0  0  0
 12 23  1  0  0  0  0
 13 14  2  0  0  0  0
 13 18  1  0  0  0  0
 14 15  1  0  0  0  0
 14 22  1  0  0  0  0
 15 16  2  0  0  0  0
 15 21  1  0  0  0  0
 16 17  1  0  0  0  0
 16 20  1  0  0  0  0
 17 18  2  0  0  0  0
 17 19  1  0  0  0  0
 27 28  1  0  0  0  0
 27 32  1  0  0  0  0
 27 33  1  0  0  0  0
 28 29  1  0  0  0  0
 28 30  1  0  0  0  0
 28 31  1  0  0  0  0
M  END
>  <MODEL>
       9

$$$$
best_conformers_48.pdb
 OpenBabel02042510453D

 41 43  0  0  1  0  0  0  0  0999 V2000
   11.6220   -2.2080   22.8110 C   0  0  0  0  0  0  0  0  0  0  0  0
   10.3380   -1.4210   22.9320 C   0  0  1  0  0  0  0  0  0  0  0  0
    9.1110   -2.3200   23.0840 C   0  0  0  0  0  0  0  0  0  0  0  0
    7.8520   -1.5970   23.6070 C   0  0  0  0  0  0  0  0  0  0  0  0
    7.6670   -0.2160   23.1590 N   0  0  0  0  0  0  0  0  0  0  0  0
    7.3780    0.1170   21.8490 C   0  0  0  0  0  0  0  0  0  0  0  0
    7.7910    1.1500   21.3530 O   0  0  0  0  0  0  0  0  0  0  0  0
    6.4690   -0.8370   21.0450 C   0  0  0  0  0  0  0  0  0  0  0  0
    5.8130   -0.1750   19.8520 C   0  0  0  0  0  0  0  0  0  0  0  0
    6.2360   -0.4380   18.5770 C   0  0  0  0  0  0  0  0  0  0  0  0
    5.7560    0.1380   17.4380 N   0  0  0  0  0  0  0  0  0  0  0  0
    4.7870    1.0100   17.5830 C   0  0  0  0  0  0  0  0  0  0  0  0
    4.2310    1.3790   18.8370 C   0  0  0  0  0  0  0  0  0  0  0  0
    3.1790    2.3290   18.9430 C   0  0  0  0  0  0  0  0  0  0  0  0
    2.6590    2.6590   20.1620 C   0  0  0  0  0  0  0  0  0  0  0  0
    3.1710    2.0530   21.3340 C   0  0  0  0  0  0  0  0  0  0  0  0
    4.1900    1.1360   21.2620 C   0  0  0  0  0  0  0  0  0  0  0  0
    4.7550    0.7740   20.0090 C   0  0  0  0  0  0  0  0  0  0  0  0
    4.5790    0.6830   22.1710 H   0  0  0  0  0  0  0  0  0  0  0  0
    2.7550    2.3250   22.3000 H   0  0  0  0  0  0  0  0  0  0  0  0
    1.8560    3.3900   20.2440 H   0  0  0  0  0  0  0  0  0  0  0  0
    2.8010    2.7920   18.0320 H   0  0  0  0  0  0  0  0  0  0  0  0
    4.3980    1.4860   16.6790 H   0  0  0  0  0  0  0  0  0  0  0  0
    7.0270   -1.1690   18.4010 H   0  0  0  0  0  0  0  0  0  0  0  0
    7.0890   -1.6740   20.6930 H   0  0  0  0  0  0  0  0  0  0  0  0
    5.7130   -1.2780   21.7060 H   0  0  0  0  0  0  0  0  0  0  0  0
    8.3960    0.7810   23.9440 C   0  0  0  0  0  0  0  0  0  0  0  0
    9.9160    0.7370   23.7590 C   0  0  0  0  0  0  0  0  0  0  0  0
   10.4820   -0.5250   24.0200 O   0  0  0  0  0  0  0  0  0  0  0  0
   10.4200    1.4350   24.4080 H   0  0  0  0  0  0  0  0  0  0  0  0
   10.2050    1.1150   22.7690 H   0  0  0  0  0  0  0  0  0  0  0  0
    8.0360    1.7800   23.6860 H   0  0  0  0  0  0  0  0  0  0  0  0
    8.1600    0.6080   25.0020 H   0  0  0  0  0  0  0  0  0  0  0  0
    7.8910   -1.5620   24.6980 H   0  0  0  0  0  0  0  0  0  0  0  0
    6.9580   -2.1630   23.3450 H   0  0  0  0  0  0  0  0  0  0  0  0
    8.9050   -2.7690   22.1050 H   0  0  0  0  0  0  0  0  0  0  0  0
    9.3540   -3.1540   23.7580 H   0  0  0  0  0  0  0  0  0  0  0  0
   10.2120   -0.8110   22.0330 H   0  0  0  0  0  0  0  0  0  0  0  0
   11.7980   -2.7980   23.7150 H   0  0  0  0  0  0  0  0  0  0  0  0
   11.5550   -2.8700   21.9460 H   0  0  0  0  0  0  0  0  0  0  0  0
   12.4680   -1.5300   22.6640 H   0  0  0  0  0  0  0  0  0  0  0  0
  1  2  1  0  0  0  0
  1 39  1  0  0  0  0
  1 40  1  0  0  0  0
  1 41  1  0  0  0  0
  2  3  1  0  0  0  0
  2 29  1  0  0  0  0
  2 38  1  6  0  0  0
  3  4  1  0  0  0  0
  3 36  1  0  0  0  0
  3 37  1  0  0  0  0
  4  5  1  0  0  0  0
  4 34  1  0  0  0  0
  4 35  1  0  0  0  0
  5  6  1  0  0  0  0
  5 27  1  0  0  0  0
  6  7  2  0  0  0  0
  6  8  1  0  0  0  0
  8  9  1  0  0  0  0
  8 25  1  0  0  0  0
  8 26  1  0  0  0  0
  9 10  2  0  0  0  0
  9 18  1  0  0  0  0
 10 11  1  0  0  0  0
 10 24  1  0  0  0  0
 11 12  2  0  0  0  0
 12 13  1  0  0  0  0
 12 23  1  0  0  0  0
 13 14  2  0  0  0  0
 13 18  1  0  0  0  0
 14 15  1  0  0  0  0
 14 22  1  0  0  0  0
 15 16  2  0  0  0  0
 15 21  1  0  0  0  0
 16 17  1  0  0  0  0
 16 20  1  0  0  0  0
 17 18  2  0  0  0  0
 17 19  1  0  0  0  0
 27 28  1  0  0  0  0
 27 32  1  0  0  0  0
 27 33  1  0  0  0  0
 28 29  1  0  0  0  0
 28 30  1  0  0  0  0
 28 31  1  0  0  0  0
M  END
>  <MODEL>
      10

$$$$
best_conformers_48.pdb
 OpenBabel02042510453D

 41 43  0  0  1  0  0  0  0  0999 V2000
   12.8180   -1.0130   24.4190 C   0  0  0  0  0  0  0  0  0  0  0  0
   11.3810   -0.8170   23.9810 C   0  0  1  0  0  0  0  0  0  0  0  0
   11.2510   -0.4990   22.4940 C   0  0  0  0  0  0  0  0  0  0  0  0
    9.9640    0.2210   22.0960 C   0  0  0  0  0  0  0  0  0  0  0  0
    8.7270   -0.5670   22.1600 N   0  0  0  0  0  0  0  0  0  0  0  0
    7.5900    0.0430   21.6620 C   0  0  0  0  0  0  0  0  0  0  0  0
    7.4700    1.2540   21.6560 O   0  0  0  0  0  0  0  0  0  0  0  0
    6.4990   -0.8520   21.0250 C   0  0  0  0  0  0  0  0  0  0  0  0
    5.8070   -0.1800   19.8540 C   0  0  0  0  0  0  0  0  0  0  0  0
    6.2320   -0.4380   18.5740 C   0  0  0  0  0  0  0  0  0  0  0  0
    5.7550    0.1380   17.4390 N   0  0  0  0  0  0  0  0  0  0  0  0
    4.7850    1.0120   17.5820 C   0  0  0  0  0  0  0  0  0  0  0  0
    4.2300    1.3800   18.8380 C   0  0  0  0  0  0  0  0  0  0  0  0
    3.1790    2.3300   18.9390 C   0  0  0  0  0  0  0  0  0  0  0  0
    2.6590    2.6640   20.1610 C   0  0  0  0  0  0  0  0  0  0  0  0
    3.1730    2.0630   21.3310 C   0  0  0  0  0  0  0  0  0  0  0  0
    4.1910    1.1430   21.2600 C   0  0  0  0  0  0  0  0  0  0  0  0
    4.7520    0.7760   20.0090 C   0  0  0  0  0  0  0  0  0  0  0  0
    4.5940    0.7100   22.1710 H   0  0  0  0  0  0  0  0  0  0  0  0
    2.7620    2.3400   22.2970 H   0  0  0  0  0  0  0  0  0  0  0  0
    1.8580    3.3950   20.2400 H   0  0  0  0  0  0  0  0  0  0  0  0
    2.7990    2.7910   18.0280 H   0  0  0  0  0  0  0  0  0  0  0  0
    4.3970    1.4880   16.6790 H   0  0  0  0  0  0  0  0  0  0  0  0
    7.0230   -1.1680   18.4030 H   0  0  0  0  0  0  0  0  0  0  0  0
    6.9570   -1.7890   20.6770 H   0  0  0  0  0  0  0  0  0  0  0  0
    5.7700   -1.1270   21.7960 H   0  0  0  0  0  0  0  0  0  0  0  0
    8.7140   -1.8600   22.8240 C   0  0  0  0  0  0  0  0  0  0  0  0
    9.2660   -1.8430   24.2530 C   0  0  0  0  0  0  0  0  0  0  0  0
   10.6640   -1.9810   24.3450 O   0  0  0  0  0  0  0  0  0  0  0  0
    8.8440   -2.6790   24.8230 H   0  0  0  0  0  0  0  0  0  0  0  0
    8.9520   -0.9180   24.7550 H   0  0  0  0  0  0  0  0  0  0  0  0
    9.2930   -2.5970   22.2590 H   0  0  0  0  0  0  0  0  0  0  0  0
    7.6810   -2.2120   22.8560 H   0  0  0  0  0  0  0  0  0  0  0  0
    9.8750    1.1400   22.6890 H   0  0  0  0  0  0  0  0  0  0  0  0
   10.0650    0.5550   21.0650 H   0  0  0  0  0  0  0  0  0  0  0  0
   11.3810   -1.4140   21.9130 H   0  0  0  0  0  0  0  0  0  0  0  0
   12.0960    0.1450   22.2130 H   0  0  0  0  0  0  0  0  0  0  0  0
   10.9560    0.0210   24.5490 H   0  0  0  0  0  0  0  0  0  0  0  0
   13.2880   -1.8210   23.8510 H   0  0  0  0  0  0  0  0  0  0  0  0
   13.3930   -0.0940   24.2600 H   0  0  0  0  0  0  0  0  0  0  0  0
   12.8590   -1.2650   25.4830 H   0  0  0  0  0  0  0  0  0  0  0  0
  1  2  1  0  0  0  0
  1 39  1  0  0  0  0
  1 40  1  0  0  0  0
  1 41  1  0  0  0  0
  2  3  1  0  0  0  0
  2 29  1  0  0  0  0
  2 38  1  1  0  0  0
  3  4  1  0  0  0  0
  3 36  1  0  0  0  0
  3 37  1  0  0  0  0
  4  5  1  0  0  0  0
  4 34  1  0  0  0  0
  4 35  1  0  0  0  0
  5  6  1  0  0  0  0
  5 27  1  0  0  0  0
  6  7  2  0  0  0  0
  6  8  1  0  0  0  0
  8  9  1  0  0  0  0
  8 25  1  0  0  0  0
  8 26  1  0  0  0  0
  9 10  2  0  0  0  0
  9 18  1  0  0  0  0
 10 11  1  0  0  0  0
 10 24  1  0  0  0  0
 11 12  2  0  0  0  0
 12 13  1  0  0  0  0
 12 23  1  0  0  0  0
 13 14  2  0  0  0  0
 13 18  1  0  0  0  0
 14 15  1  0  0  0  0
 14 22  1  0  0  0  0
 15 16  2  0  0  0  0
 15 21  1  0  0  0  0
 16 17  1  0  0  0  0
 16 20  1  0  0  0  0
 17 18  2  0  0  0  0
 17 19  1  0  0  0  0
 27 28  1  0  0  0  0
 27 32  1  0  0  0  0
 27 33  1  0  0  0  0
 28 29  1  0  0  0  0
 28 30  1  0  0  0  0
 28 31  1  0  0  0  0
M  END
>  <MODEL>
      11

$$$$
best_conformers_48.pdb
 OpenBabel02042510453D

 41 43  0  0  1  0  0  0  0  0999 V2000
    5.1380   -5.5150   25.5500 C   0  0  0  0  0  0  0  0  0  0  0  0
    5.8360   -5.5670   24.2040 C   0  0  1  0  0  0  0  0  0  0  0  0
    4.9760   -4.9570   23.0980 C   0  0  0  0  0  0  0  0  0  0  0  0
    5.7520   -4.5530   21.8440 C   0  0  0  0  0  0  0  0  0  0  0  0
    6.3970   -3.2360   21.9120 N   0  0  0  0  0  0  0  0  0  0  0  0
    5.6870   -2.1510   21.4400 C   0  0  0  0  0  0  0  0  0  0  0  0
    4.4840   -2.2130   21.2870 O   0  0  0  0  0  0  0  0  0  0  0  0
    6.4670   -0.8880   21.0210 C   0  0  0  0  0  0  0  0  0  0  0  0
    5.8150   -0.1700   19.8550 C   0  0  0  0  0  0  0  0  0  0  0  0
    6.2300   -0.4410   18.5730 C   0  0  0  0  0  0  0  0  0  0  0  0
    5.7500    0.1320   17.4380 N   0  0  0  0  0  0  0  0  0  0  0  0
    4.7860    1.0130   17.5810 C   0  0  0  0  0  0  0  0  0  0  0  0
    4.2270    1.3790   18.8380 C   0  0  0  0  0  0  0  0  0  0  0  0
    3.1730    2.3240   18.9380 C   0  0  0  0  0  0  0  0  0  0  0  0
    2.6380    2.6410   20.1590 C   0  0  0  0  0  0  0  0  0  0  0  0
    3.1380    2.0240   21.3270 C   0  0  0  0  0  0  0  0  0  0  0  0
    4.1630    1.1100   21.2570 C   0  0  0  0  0  0  0  0  0  0  0  0
    4.7430    0.7670   20.0070 C   0  0  0  0  0  0  0  0  0  0  0  0
    4.5230    0.6300   22.1610 H   0  0  0  0  0  0  0  0  0  0  0  0
    2.7080    2.2790   22.2900 H   0  0  0  0  0  0  0  0  0  0  0  0
    1.8320    3.3650   20.2380 H   0  0  0  0  0  0  0  0  0  0  0  0
    2.7980    2.7920   18.0290 H   0  0  0  0  0  0  0  0  0  0  0  0
    4.3970    1.4890   16.6790 H   0  0  0  0  0  0  0  0  0  0  0  0
    7.0120   -1.1800   18.4060 H   0  0  0  0  0  0  0  0  0  0  0  0
    6.5590   -0.2220   21.8880 H   0  0  0  0  0  0  0  0  0  0  0  0
    7.4890   -1.1800   20.7400 H   0  0  0  0  0  0  0  0  0  0  0  0
    7.5210   -3.1090   22.8250 C   0  0  0  0  0  0  0  0  0  0  0  0
    7.2380   -3.6030   24.2440 C   0  0  0  0  0  0  0  0  0  0  0  0
    7.1420   -5.0090   24.3010 O   0  0  0  0  0  0  0  0  0  0  0  0
    8.0620   -3.3090   24.9090 H   0  0  0  0  0  0  0  0  0  0  0  0
    6.3280   -3.1340   24.6350 H   0  0  0  0  0  0  0  0  0  0  0  0
    8.3620   -3.6940   22.4420 H   0  0  0  0  0  0  0  0  0  0  0  0
    7.8290   -2.0600   22.8690 H   0  0  0  0  0  0  0  0  0  0  0  0
    6.5270   -5.2980   21.6500 H   0  0  0  0  0  0  0  0  0  0  0  0
    5.0860   -4.5560   20.9820 H   0  0  0  0  0  0  0  0  0  0  0  0
    4.2050   -5.6980   22.8490 H   0  0  0  0  0  0  0  0  0  0  0  0
    4.4370   -4.0770   23.4550 H   0  0  0  0  0  0  0  0  0  0  0  0
    6.0370   -6.6160   23.9530 H   0  0  0  0  0  0  0  0  0  0  0  0
    4.9390   -4.4930   25.8840 H   0  0  0  0  0  0  0  0  0  0  0  0
    5.7660   -5.9620   26.3030 H   0  0  0  0  0  0  0  0  0  0  0  0
    4.2110   -6.0880   25.5410 H   0  0  0  0  0  0  0  0  0  0  0  0
  1  2  1  0  0  0  0
  1 39  1  0  0  0  0
  1 40  1  0  0  0  0
  1 41  1  0  0  0  0
  2  3  1  0  0  0  0
  2 29  1  0  0  0  0
  2 38  1  6  0  0  0
  3  4  1  0  0  0  0
  3 36  1  0  0  0  0
  3 37  1  0  0  0  0
  4  5  1  0  0  0  0
  4 34  1  0  0  0  0
  4 35  1  0  0  0  0
  5  6  1  0  0  0  0
  5 27  1  0  0  0  0
  6  7  2  0  0  0  0
  6  8  1  0  0  0  0
  8  9  1  0  0  0  0
  8 25  1  0  0  0  0
  8 26  1  0  0  0  0
  9 10  2  0  0  0  0
  9 18  1  0  0  0  0
 10 11  1  0  0  0  0
 10 24  1  0  0  0  0
 11 12  2  0  0  0  0
 12 13  1  0  0  0  0
 12 23  1  0  0  0  0
 13 14  2  0  0  0  0
 13 18  1  0  0  0  0
 14 15  1  0  0  0  0
 14 22  1  0  0  0  0
 15 16  2  0  0  0  0
 15 21  1  0  0  0  0
 16 17  1  0  0  0  0
 16 20  1  0  0  0  0
 17 18  2  0  0  0  0
 17 19  1  0  0  0  0
 27 28  1  0  0  0  0
 27 32  1  0  0  0  0
 27 33  1  0  0  0  0
 28 29  1  0  0  0  0
 28 30  1  0  0  0  0
 28 31  1  0  0  0  0
M  END
>  <MODEL>
      12

$$$$
best_conformers_48.pdb
 OpenBabel02042510453D

 41 43  0  0  1  0  0  0  0  0999 V2000
    7.7620   -0.7990   25.8280 C   0  0  0  0  0  0  0  0  0  0  0  0
    9.1860   -1.1680   25.4410 C   0  0  1  0  0  0  0  0  0  0  0  0
    9.2770   -2.1550   24.2690 C   0  0  0  0  0  0  0  0  0  0  0  0
    8.4210   -1.8870   23.0270 C   0  0  0  0  0  0  0  0  0  0  0  0
    8.5470   -0.5540   22.4470 N   0  0  0  0  0  0  0  0  0  0  0  0
    7.5440    0.0520   21.7230 C   0  0  0  0  0  0  0  0  0  0  0  0
    7.5090    1.2650   21.5880 O   0  0  0  0  0  0  0  0  0  0  0  0
    6.4950   -0.8480   21.0290 C   0  0  0  0  0  0  0  0  0  0  0  0
    5.8110   -0.1790   19.8550 C   0  0  0  0  0  0  0  0  0  0  0  0
    6.2340   -0.4400   18.5770 C   0  0  0  0  0  0  0  0  0  0  0  0
    5.7570    0.1390   17.4400 N   0  0  0  0  0  0  0  0  0  0  0  0
    4.7870    1.0100   17.5840 C   0  0  0  0  0  0  0  0  0  0  0  0
    4.2310    1.3790   18.8380 C   0  0  0  0  0  0  0  0  0  0  0  0
    3.1800    2.3290   18.9410 C   0  0  0  0  0  0  0  0  0  0  0  0
    2.6600    2.6640   20.1610 C   0  0  0  0  0  0  0  0  0  0  0  0
    3.1740    2.0610   21.3330 C   0  0  0  0  0  0  0  0  0  0  0  0
    4.1930    1.1420   21.2610 C   0  0  0  0  0  0  0  0  0  0  0  0
    4.7560    0.7750   20.0110 C   0  0  0  0  0  0  0  0  0  0  0  0
    4.5950    0.7050   22.1710 H   0  0  0  0  0  0  0  0  0  0  0  0
    2.7630    2.3380   22.2990 H   0  0  0  0  0  0  0  0  0  0  0  0
    1.8580    3.3950   20.2410 H   0  0  0  0  0  0  0  0  0  0  0  0
    2.8010    2.7900   18.0290 H   0  0  0  0  0  0  0  0  0  0  0  0
    4.3990    1.4860   16.6800 H   0  0  0  0  0  0  0  0  0  0  0  0
    7.0240   -1.1700   18.3990 H   0  0  0  0  0  0  0  0  0  0  0  0
    5.7500   -1.1620   21.7700 H   0  0  0  0  0  0  0  0  0  0  0  0
    6.9840   -1.7690   20.6810 H   0  0  0  0  0  0  0  0  0  0  0  0
    9.6920    0.2700   22.8180 C   0  0  0  0  0  0  0  0  0  0  0  0
    9.6190    0.8620   24.2150 C   0  0  0  0  0  0  0  0  0  0  0  0
   10.0030   -0.0170   25.2500 O   0  0  0  0  0  0  0  0  0  0  0  0
    8.6110    1.2490   24.3810 H   0  0  0  0  0  0  0  0  0  0  0  0
   10.3040    1.7200   24.2510 H   0  0  0  0  0  0  0  0  0  0  0  0
    9.7800    1.0770   22.0900 H   0  0  0  0  0  0  0  0  0  0  0  0
   10.6060   -0.3190   22.7650 H   0  0  0  0  0  0  0  0  0  0  0  0
    7.3780   -2.0570   23.3080 H   0  0  0  0  0  0  0  0  0  0  0  0
    8.6610   -2.6460   22.2720 H   0  0  0  0  0  0  0  0  0  0  0  0
    8.9880   -3.1410   24.6510 H   0  0  0  0  0  0  0  0  0  0  0  0
   10.3300   -2.2540   24.0000 H   0  0  0  0  0  0  0  0  0  0  0  0
    9.6560   -1.6500   26.3100 H   0  0  0  0  0  0  0  0  0  0  0  0
    7.2250   -1.6830   26.1780 H   0  0  0  0  0  0  0  0  0  0  0  0
    7.1830   -0.3660   25.0080 H   0  0  0  0  0  0  0  0  0  0  0  0
    7.7790   -0.0730   26.6420 H   0  0  0  0  0  0  0  0  0  0  0  0
  1  2  1  0  0  0  0
  1 39  1  0  0  0  0
  1 40  1  0  0  0  0
  1 41  1  0  0  0  0
  2  3  1  0  0  0  0
  2 29  1  0  0  0  0
  2 38  1  1  0  0  0
  3  4  1  0  0  0  0
  3 36  1  0  0  0  0
  3 37  1  0  0  0  0
  4  5  1  0  0  0  0
  4 34  1  0  0  0  0
  4 35  1  0  0  0  0
  5  6  1  0  0  0  0
  5 27  1  0  0  0  0
  6  7  2  0  0  0  0
  6  8  1  0  0  0  0
  8  9  1  0  0  0  0
  8 25  1  0  0  0  0
  8 26  1  0  0  0  0
  9 10  2  0  0  0  0
  9 18  1  0  0  0  0
 10 11  1  0  0  0  0
 10 24  1  0  0  0  0
 11 12  2  0  0  0  0
 12 13  1  0  0  0  0
 12 23  1  0  0  0  0
 13 14  2  0  0  0  0
 13 18  1  0  0  0  0
 14 15  1  0  0  0  0
 14 22  1  0  0  0  0
 15 16  2  0  0  0  0
 15 21  1  0  0  0  0
 16 17  1  0  0  0  0
 16 20  1  0  0  0  0
 17 18  2  0  0  0  0
 17 19  1  0  0  0  0
 27 28  1  0  0  0  0
 27 32  1  0  0  0  0
 27 33  1  0  0  0  0
 28 29  1  0  0  0  0
 28 30  1  0  0  0  0
 28 31  1  0  0  0  0
M  END
>  <MODEL>
      13

$$$$
best_conformers_48.pdb
 OpenBabel02042510453D

 41 43  0  0  1  0  0  0  0  0999 V2000
    9.9440   -1.6630   26.4300 C   0  0  0  0  0  0  0  0  0  0  0  0
    9.7730   -0.8040   25.1890 C   0  0  1  0  0  0  0  0  0  0  0  0
    9.0130   -1.5400   24.0660 C   0  0  0  0  0  0  0  0  0  0  0  0
    7.5210   -1.1800   23.9240 C   0  0  0  0  0  0  0  0  0  0  0  0
    7.2600    0.0800   23.2210 N   0  0  0  0  0  0  0  0  0  0  0  0
    7.3340    0.1600   21.8270 C   0  0  0  0  0  0  0  0  0  0  0  0
    8.0000    1.0010   21.2590 O   0  0  0  0  0  0  0  0  0  0  0  0
    6.4670   -0.8350   21.0390 C   0  0  0  0  0  0  0  0  0  0  0  0
    5.8070   -0.1790   19.8460 C   0  0  0  0  0  0  0  0  0  0  0  0
    6.2400   -0.4390   18.5730 C   0  0  0  0  0  0  0  0  0  0  0  0
    5.7600    0.1390   17.4360 N   0  0  0  0  0  0  0  0  0  0  0  0
    4.7880    1.0100   17.5840 C   0  0  0  0  0  0  0  0  0  0  0  0
    4.2310    1.3780   18.8380 C   0  0  0  0  0  0  0  0  0  0  0  0
    3.1810    2.3280   18.9410 C   0  0  0  0  0  0  0  0  0  0  0  0
    2.6580    2.6580   20.1630 C   0  0  0  0  0  0  0  0  0  0  0  0
    3.1700    2.0510   21.3330 C   0  0  0  0  0  0  0  0  0  0  0  0
    4.1900    1.1330   21.2620 C   0  0  0  0  0  0  0  0  0  0  0  0
    4.7520    0.7710   20.0070 C   0  0  0  0  0  0  0  0  0  0  0  0
    4.5700    0.6780   22.1710 H   0  0  0  0  0  0  0  0  0  0  0  0
    2.7520    2.3210   22.2990 H   0  0  0  0  0  0  0  0  0  0  0  0
    1.8560    3.3890   20.2440 H   0  0  0  0  0  0  0  0  0  0  0  0
    2.8040    2.7910   18.0320 H   0  0  0  0  0  0  0  0  0  0  0  0
    4.3990    1.4840   16.6800 H   0  0  0  0  0  0  0  0  0  0  0  0
    7.0310   -1.1700   18.4020 H   0  0  0  0  0  0  0  0  0  0  0  0
    5.7240   -1.2890   21.7060 H   0  0  0  0  0  0  0  0  0  0  0  0
    7.1200   -1.6460   20.6900 H   0  0  0  0  0  0  0  0  0  0  0  0
    7.5710    1.2900   23.9680 C   0  0  0  0  0  0  0  0  0  0  0  0
    8.9660    1.3500   24.5670 C   0  0  0  0  0  0  0  0  0  0  0  0
    9.1270    0.3910   25.5950 O   0  0  0  0  0  0  0  0  0  0  0  0
    9.1100    2.3470   25.0130 H   0  0  0  0  0  0  0  0  0  0  0  0
    9.7230    1.2280   23.7810 H   0  0  0  0  0  0  0  0  0  0  0  0
    7.4160    2.1470   23.3070 H   0  0  0  0  0  0  0  0  0  0  0  0
    6.8720    1.3670   24.8100 H   0  0  0  0  0  0  0  0  0  0  0  0
    7.0730   -1.1070   24.9190 H   0  0  0  0  0  0  0  0  0  0  0  0
    7.0040   -1.9690   23.3800 H   0  0  0  0  0  0  0  0  0  0  0  0
    9.5100   -1.3470   23.1100 H   0  0  0  0  0  0  0  0  0  0  0  0
    9.1290   -2.6180   24.2450 H   0  0  0  0  0  0  0  0  0  0  0  0
   10.7760   -0.5390   24.8130 H   0  0  0  0  0  0  0  0  0  0  0  0
   10.4760   -1.1140   27.2110 H   0  0  0  0  0  0  0  0  0  0  0  0
   10.5270   -2.5590   26.1890 H   0  0  0  0  0  0  0  0  0  0  0  0
    8.9720   -1.9840   26.8210 H   0  0  0  0  0  0  0  0  0  0  0  0
  1  2  1  0  0  0  0
  1 39  1  0  0  0  0
  1 40  1  0  0  0  0
  1 41  1  0  0  0  0
  2  3  1  0  0  0  0
  2 29  1  0  0  0  0
  2 38  1  6  0  0  0
  3  4  1  0  0  0  0
  3 36  1  0  0  0  0
  3 37  1  0  0  0  0
  4  5  1  0  0  0  0
  4 34  1  0  0  0  0
  4 35  1  0  0  0  0
  5  6  1  0  0  0  0
  5 27  1  0  0  0  0
  6  7  2  0  0  0  0
  6  8  1  0  0  0  0
  8  9  1  0  0  0  0
  8 25  1  0  0  0  0
  8 26  1  0  0  0  0
  9 10  2  0  0  0  0
  9 18  1  0  0  0  0
 10 11  1  0  0  0  0
 10 24  1  0  0  0  0
 11 12  2  0  0  0  0
 12 13  1  0  0  0  0
 12 23  1  0  0  0  0
 13 14  2  0  0  0  0
 13 18  1  0  0  0  0
 14 15  1  0  0  0  0
 14 22  1  0  0  0  0
 15 16  2  0  0  0  0
 15 21  1  0  0  0  0
 16 17  1  0  0  0  0
 16 20  1  0  0  0  0
 17 18  2  0  0  0  0
 17 19  1  0  0  0  0
 27 28  1  0  0  0  0
 27 32  1  0  0  0  0
 27 33  1  0  0  0  0
 28 29  1  0  0  0  0
 28 30  1  0  0  0  0
 28 31  1  0  0  0  0
M  END
>  <MODEL>
      14

$$$$
best_conformers_48.pdb
 OpenBabel02042510453D

 41 43  0  0  1  0  0  0  0  0999 V2000
    6.4460   -3.9850   26.7730 C   0  0  0  0  0  0  0  0  0  0  0  0
    6.2540   -3.8400   25.2750 C   0  0  1  0  0  0  0  0  0  0  0  0
    6.9540   -2.5930   24.7190 C   0  0  0  0  0  0  0  0  0  0  0  0
    7.3540   -2.7230   23.2500 C   0  0  0  0  0  0  0  0  0  0  0  0
    6.2440   -3.0350   22.3700 N   0  0  0  0  0  0  0  0  0  0  0  0
    5.6580   -2.1220   21.5220 C   0  0  0  0  0  0  0  0  0  0  0  0
    4.5300   -2.3230   21.1200 O   0  0  0  0  0  0  0  0  0  0  0  0
    6.4600   -0.8890   21.0360 C   0  0  0  0  0  0  0  0  0  0  0  0
    5.8100   -0.1840   19.8590 C   0  0  0  0  0  0  0  0  0  0  0  0
    6.2320   -0.4470   18.5810 C   0  0  0  0  0  0  0  0  0  0  0  0
    5.7540    0.1310   17.4430 N   0  0  0  0  0  0  0  0  0  0  0  0
    4.7890    1.0090   17.5860 C   0  0  0  0  0  0  0  0  0  0  0  0
    4.2290    1.3730   18.8390 C   0  0  0  0  0  0  0  0  0  0  0  0
    3.1750    2.3210   18.9410 C   0  0  0  0  0  0  0  0  0  0  0  0
    2.6400    2.6380   20.1600 C   0  0  0  0  0  0  0  0  0  0  0  0
    3.1400    2.0200   21.3290 C   0  0  0  0  0  0  0  0  0  0  0  0
    4.1640    1.1060   21.2580 C   0  0  0  0  0  0  0  0  0  0  0  0
    4.7440    0.7580   20.0100 C   0  0  0  0  0  0  0  0  0  0  0  0
    4.5300    0.6290   22.1630 H   0  0  0  0  0  0  0  0  0  0  0  0
    2.7100    2.2780   22.2930 H   0  0  0  0  0  0  0  0  0  0  0  0
    1.8330    3.3640   20.2390 H   0  0  0  0  0  0  0  0  0  0  0  0
    2.8020    2.7880   18.0310 H   0  0  0  0  0  0  0  0  0  0  0  0
    4.4010    1.4840   16.6810 H   0  0  0  0  0  0  0  0  0  0  0  0
    7.0190   -1.1790   18.4030 H   0  0  0  0  0  0  0  0  0  0  0  0
    6.6170   -0.1860   21.8680 H   0  0  0  0  0  0  0  0  0  0  0  0
    7.4630   -1.2240   20.7350 H   0  0  0  0  0  0  0  0  0  0  0  0
    5.4720   -4.2640   22.5880 C   0  0  0  0  0  0  0  0  0  0  0  0
    6.1260   -5.3640   23.4380 C   0  0  0  0  0  0  0  0  0  0  0  0
    6.7640   -5.0010   24.6450 O   0  0  0  0  0  0  0  0  0  0  0  0
    6.8810   -5.9010   22.8550 H   0  0  0  0  0  0  0  0  0  0  0  0
    5.3440   -6.1040   23.6750 H   0  0  0  0  0  0  0  0  0  0  0  0
    4.4710   -4.0460   22.9880 H   0  0  0  0  0  0  0  0  0  0  0  0
    5.2710   -4.7120   21.6130 H   0  0  0  0  0  0  0  0  0  0  0  0
    7.8210   -1.8010   22.9050 H   0  0  0  0  0  0  0  0  0  0  0  0
    8.0880   -3.5240   23.1460 H   0  0  0  0  0  0  0  0  0  0  0  0
    7.8630   -2.4040   25.3030 H   0  0  0  0  0  0  0  0  0  0  0  0
    6.3050   -1.7250   24.8590 H   0  0  0  0  0  0  0  0  0  0  0  0
    5.1770   -3.7810   25.0750 H   0  0  0  0  0  0  0  0  0  0  0  0
    5.9070   -4.8590   27.1520 H   0  0  0  0  0  0  0  0  0  0  0  0
    6.0610   -3.0990   27.2920 H   0  0  0  0  0  0  0  0  0  0  0  0
    7.5070   -4.0950   27.0190 H   0  0  0  0  0  0  0  0  0  0  0  0
  1  2  1  0  0  0  0
  1 39  1  0  0  0  0
  1 40  1  0  0  0  0
  1 41  1  0  0  0  0
  2  3  1  0  0  0  0
  2 29  1  0  0  0  0
  2 38  1  6  0  0  0
  3  4  1  0  0  0  0
  3 36  1  0  0  0  0
  3 37  1  0  0  0  0
  4  5  1  0  0  0  0
  4 34  1  0  0  0  0
  4 35  1  0  0  0  0
  5  6  1  0  0  0  0
  5 27  1  0  0  0  0
  6  7  2  0  0  0  0
  6  8  1  0  0  0  0
  8  9  1  0  0  0  0
  8 25  1  0  0  0  0
  8 26  1  0  0  0  0
  9 10  2  0  0  0  0
  9 18  1  0  0  0  0
 10 11  1  0  0  0  0
 10 24  1  0  0  0  0
 11 12  2  0  0  0  0
 12 13  1  0  0  0  0
 12 23  1  0  0  0  0
 13 14  2  0  0  0  0
 13 18  1  0  0  0  0
 14 15  1  0  0  0  0
 14 22  1  0  0  0  0
 15 16  2  0  0  0  0
 15 21  1  0  0  0  0
 16 17  1  0  0  0  0
 16 20  1  0  0  0  0
 17 18  2  0  0  0  0
 17 19  1  0  0  0  0
 27 28  1  0  0  0  0
 27 32  1  0  0  0  0
 27 33  1  0  0  0  0
 28 29  1  0  0  0  0
 28 30  1  0  0  0  0
 28 31  1  0  0  0  0
M  END
>  <MODEL>
      15

$$$$
best_conformers_48.pdb
 OpenBabel02042510453D

 41 43  0  0  1  0  0  0  0  0999 V2000
    9.4990    3.5220   24.0180 C   0  0  0  0  0  0  0  0  0  0  0  0
    9.1840    2.2510   23.2590 C   0  0  1  0  0  0  0  0  0  0  0  0
    8.0040    2.4590   22.3140 C   0  0  0  0  0  0  0  0  0  0  0  0
    7.2080    1.2290   21.8880 C   0  0  0  0  0  0  0  0  0  0  0  0
    8.0180    0.0670   21.5150 N   0  0  0  0  0  0  0  0  0  0  0  0
    7.4550   -1.1500   21.2080 C   0  0  0  0  0  0  0  0  0  0  0  0
    8.1420   -2.1320   20.9870 O   0  0  0  0  0  0  0  0  0  0  0  0
    5.9440   -1.2050   21.0430 C   0  0  0  0  0  0  0  0  0  0  0  0
    5.5070   -0.3630   19.8660 C   0  0  0  0  0  0  0  0  0  0  0  0
    6.1510   -0.5130   18.6620 C   0  0  0  0  0  0  0  0  0  0  0  0
    5.8190    0.1260   17.5150 N   0  0  0  0  0  0  0  0  0  0  0  0
    4.8240    0.9830   17.5850 C   0  0  0  0  0  0  0  0  0  0  0  0
    4.1280    1.3140   18.7840 C   0  0  0  0  0  0  0  0  0  0  0  0
    3.1200    2.3120   18.8360 C   0  0  0  0  0  0  0  0  0  0  0  0
    2.5680    2.6860   20.0310 C   0  0  0  0  0  0  0  0  0  0  0  0
    2.9910    2.0790   21.2330 C   0  0  0  0  0  0  0  0  0  0  0  0
    3.9360    1.0790   21.1990 C   0  0  0  0  0  0  0  0  0  0  0  0
    4.5090    0.6500   19.9750 C   0  0  0  0  0  0  0  0  0  0  0  0
    4.3050    0.6720   22.1370 H   0  0  0  0  0  0  0  0  0  0  0  0
    2.5870    2.4120   22.1840 H   0  0  0  0  0  0  0  0  0  0  0  0
    1.8190    3.4690   20.0720 H   0  0  0  0  0  0  0  0  0  0  0  0
    2.8210    2.7980   17.9090 H   0  0  0  0  0  0  0  0  0  0  0  0
    4.5430    1.4860   16.6610 H   0  0  0  0  0  0  0  0  0  0  0  0
    6.9950   -1.1990   18.6010 H   0  0  0  0  0  0  0  0  0  0  0  0
    5.7090   -2.2610   20.8870 H   0  0  0  0  0  0  0  0  0  0  0  0
    5.4660   -0.8810   21.9650 H   0  0  0  0  0  0  0  0  0  0  0  0
    9.3510    0.2950   20.9750 C   0  0  0  0  0  0  0  0  0  0  0  0
   10.4000    0.6190   22.0230 C   0  0  0  0  0  0  0  0  0  0  0  0
   10.3580    1.9290   22.5240 O   0  0  0  0  0  0  0  0  0  0  0  0
   10.3270   -0.0960   22.8530 H   0  0  0  0  0  0  0  0  0  0  0  0
   11.3900    0.4900   21.5710 H   0  0  0  0  0  0  0  0  0  0  0  0
    9.6680   -0.6180   20.4710 H   0  0  0  0  0  0  0  0  0  0  0  0
    9.2990    1.1030   20.2320 H   0  0  0  0  0  0  0  0  0  0  0  0
    6.5660    1.5390   21.0550 H   0  0  0  0  0  0  0  0  0  0  0  0
    6.5750    0.9620   22.7390 H   0  0  0  0  0  0  0  0  0  0  0  0
    7.2800    3.1370   22.7840 H   0  0  0  0  0  0  0  0  0  0  0  0
    8.4040    2.9870   21.4440 H   0  0  0  0  0  0  0  0  0  0  0  0
    8.9710    1.4460   23.9890 H   0  0  0  0  0  0  0  0  0  0  0  0
    9.4410    4.4100   23.3760 H   0  0  0  0  0  0  0  0  0  0  0  0
    8.7920    3.6480   24.8460 H   0  0  0  0  0  0  0  0  0  0  0  0
   10.5200    3.4470   24.4090 H   0  0  0  0  0  0  0  0  0  0  0  0
  1  2  1  0  0  0  0
  1 39  1  0  0  0  0
  1 40  1  0  0  0  0
  1 41  1  0  0  0  0
  2  3  1  0  0  0  0
  2 29  1  0  0  0  0
  2 38  1  1  0  0  0
  3  4  1  0  0  0  0
  3 36  1  0  0  0  0
  3 37  1  0  0  0  0
  4  5  1  0  0  0  0
  4 34  1  0  0  0  0
  4 35  1  0  0  0  0
  5  6  1  0  0  0  0
  5 27  1  0  0  0  0
  6  7  2  0  0  0  0
  6  8  1  0  0  0  0
  8  9  1  0  0  0  0
  8 25  1  0  0  0  0
  8 26  1  0  0  0  0
  9 10  2  0  0  0  0
  9 18  1  0  0  0  0
 10 11  1  0  0  0  0
 10 24  1  0  0  0  0
 11 12  2  0  0  0  0
 12 13  1  0  0  0  0
 12 23  1  0  0  0  0
 13 14  2  0  0  0  0
 13 18  1  0  0  0  0
 14 15  1  0  0  0  0
 14 22  1  0  0  0  0
 15 16  2  0  0  0  0
 15 21  1  0  0  0  0
 16 17  1  0  0  0  0
 16 20  1  0  0  0  0
 17 18  2  0  0  0  0
 17 19  1  0  0  0  0
 27 28  1  0  0  0  0
 27 32  1  0  0  0  0
 27 33  1  0  0  0  0
 28 29  1  0  0  0  0
 28 30  1  0  0  0  0
 28 31  1  0  0  0  0
M  END
>  <MODEL>
      16

$$$$
