best_conformers_15.pdb
 OpenBabel02042510453D

 72 77  0  0  1  0  0  0  0  0999 V2000
    7.2940    4.9840   22.2380 C   0  0  0  0  0  0  0  0  0  0  0  0
    5.9200    5.0780   22.8880 C   0  0  1  0  0  0  0  0  0  0  0  0
    5.4820    3.7630   23.5250 C   0  0  0  0  0  0  0  0  0  0  0  0
    6.1940    3.4540   24.8110 N   0  3  2  0  0  0  0  0  0  0  0  0
    5.6620    2.1790   25.3870 C   0  0  0  0  0  0  0  0  0  0  0  0
    6.7410    1.2690   25.9800 C   0  0  0  0  0  0  0  0  0  0  0  0
    7.5890    0.6020   25.0050 N   0  0  0  0  0  0  0  0  0  0  0  0
    7.1460   -0.6740   24.4740 C   0  0  0  0  0  0  0  0  0  0  0  0
    7.6600   -0.9470   23.0430 C   0  0  2  0  0  0  0  0  0  0  0  0
    6.9970    0.0180   22.0380 C   0  0  0  0  0  0  0  0  0  0  0  0
    7.0400    1.2350   22.0890 O   0  0  0  0  0  0  0  0  0  0  0  0
    6.3970   -0.7200   21.0420 N   0  0  0  0  0  0  0  0  0  0  0  0
    5.8280   -0.1450   19.8880 C   0  0  0  0  0  0  0  0  0  0  0  0
    6.2590   -0.4610   18.6190 C   0  0  0  0  0  0  0  0  0  0  0  0
    5.7800    0.1090   17.4850 N   0  0  0  0  0  0  0  0  0  0  0  0
    4.8150    0.9910   17.6110 C   0  0  0  0  0  0  0  0  0  0  0  0
    4.2390    1.3630   18.8580 C   0  0  0  0  0  0  0  0  0  0  0  0
    3.1840    2.3110   18.9480 C   0  0  0  0  0  0  0  0  0  0  0  0
    2.6220    2.6160   20.1590 C   0  0  0  0  0  0  0  0  0  0  0  0
    3.0830    1.9810   21.3340 C   0  0  0  0  0  0  0  0  0  0  0  0
    4.1080    1.0720   21.2740 C   0  0  0  0  0  0  0  0  0  0  0  0
    4.7350    0.7640   20.0330 C   0  0  0  0  0  0  0  0  0  0  0  0
    4.4720    0.6000   22.1800 H   0  0  0  0  0  0  0  0  0  0  0  0
    2.6340    2.2290   22.2920 H   0  0  0  0  0  0  0  0  0  0  0  0
    1.8240    3.3500   20.2260 H   0  0  0  0  0  0  0  0  0  0  0  0
    2.8350    2.7880   18.0360 H   0  0  0  0  0  0  0  0  0  0  0  0
    4.4330    1.4500   16.6980 H   0  0  0  0  0  0  0  0  0  0  0  0
    7.0490   -1.1930   18.4550 H   0  0  0  0  0  0  0  0  0  0  0  0
    6.7870   -2.1140   21.0880 C   0  0  0  0  0  0  0  0  0  0  0  0
    7.2630   -2.3610   22.5300 C   0  0  2  0  0  0  0  0  0  0  0  0
    6.2040   -3.1180   23.3510 C   0  0  0  0  0  0  0  0  0  0  0  0
    5.9960   -4.0910   22.8920 H   0  0  0  0  0  0  0  0  0  0  0  0
    5.2620   -2.5610   23.3980 H   0  0  0  0  0  0  0  0  0  0  0  0
    6.5420   -3.3150   24.3750 H   0  0  0  0  0  0  0  0  0  0  0  0
    8.1550   -2.9940   22.5230 H   0  0  0  0  0  0  0  0  0  0  0  0
    5.9440   -2.7490   20.8140 H   0  0  0  0  0  0  0  0  0  0  0  0
    7.6130   -2.2720   20.3930 H   0  0  0  0  0  0  0  0  0  0  0  0
    9.1550   -0.6700   23.0100 C   0  0  0  0  0  0  0  0  0  0  0  0
    9.9910   -1.3100   22.0900 C   0  0  0  0  0  0  0  0  0  0  0  0
   11.3360   -0.9840   22.0640 C   0  0  0  0  0  0  0  0  0  0  0  0
   12.3760   -1.7520   20.9030 Cl  0  0  0  0  0  0  0  0  0  0  0  0
   11.8800   -0.0280   22.9250 C   0  0  0  0  0  0  0  0  0  0  0  0
   11.0340    0.6550   23.7780 C   0  0  0  0  0  0  0  0  0  0  0  0
    9.6720    0.3630   23.8000 C   0  0  0  0  0  0  0  0  0  0  0  0
    8.7170    1.2220   24.5810 C   0  0  0  0  0  0  0  0  0  0  0  0
    8.9130    2.4190   24.8100 O   0  0  0  0  0  0  0  0  0  0  0  0
   11.4240    1.4110   24.4500 H   0  0  0  0  0  0  0  0  0  0  0  0
   12.9450    0.1910   22.9020 H   0  0  0  0  0  0  0  0  0  0  0  0
    9.6130   -2.0330   21.3710 H   0  0  0  0  0  0  0  0  0  0  0  0
    6.0540   -0.6840   24.4830 H   0  0  0  0  0  0  0  0  0  0  0  0
    7.4890   -1.4830   25.1300 H   0  0  0  0  0  0  0  0  0  0  0  0
    6.2460    0.4900   26.5600 H   0  0  0  0  0  0  0  0  0  0  0  0
    7.3790    1.8200   26.6730 H   0  0  0  0  0  0  0  0  0  0  0  0
    4.9090    2.4030   26.1530 H   0  0  0  0  0  0  0  0  0  0  0  0
    5.1420    1.6270   24.5940 H   0  0  0  0  0  0  0  0  0  0  0  0
    6.0260    4.6580   25.7330 C   0  0  1  0  0  0  0  0  0  0  0  0
    6.7840    4.4630   27.0330 C   0  0  0  0  0  0  0  0  0  0  0  0
    6.3510    3.6810   27.6650 H   0  0  0  0  0  0  0  0  0  0  0  0
    6.8000    5.3890   27.6150 H   0  0  0  0  0  0  0  0  0  0  0  0
    7.8100    4.1880   26.7700 H   0  0  0  0  0  0  0  0  0  0  0  0
    6.5150    5.9100   25.0130 C   0  0  0  0  0  0  0  0  0  0  0  0
    5.8110    6.1480   23.8160 O   0  0  0  0  0  0  0  0  0  0  0  0
    6.3470    6.7940   25.6360 H   0  0  0  0  0  0  0  0  0  0  0  0
    7.5990    5.8270   24.8290 H   0  0  0  0  0  0  0  0  0  0  0  0
    4.9530    4.7830   25.9270 H   0  0  0  0  0  0  0  0  0  0  0  0
    7.2160    3.2890   24.6520 H   0  0  0  0  0  0  0  0  0  0  0  0
    4.4100    3.8420   23.7520 H   0  0  0  0  0  0  0  0  0  0  0  0
    5.6330    2.9330   22.8330 H   0  0  0  0  0  0  0  0  0  0  0  0
    5.1840    5.3400   22.1190 H   0  0  0  0  0  0  0  0  0  0  0  0
    7.5800    5.9570   21.8290 H   0  0  0  0  0  0  0  0  0  0  0  0
    8.0690    4.6530   22.9400 H   0  0  0  0  0  0  0  0  0  0  0  0
    7.2590    4.2510   21.4250 H   0  0  0  0  0  0  0  0  0  0  0  0
  1  2  1  0  0  0  0
  1 70  1  0  0  0  0
  1 71  1  0  0  0  0
  1 72  1  0  0  0  0
  2  3  1  0  0  0  0
  2 62  1  0  0  0  0
  2 69  1  6  0  0  0
  3  4  1  0  0  0  0
  3 67  1  0  0  0  0
  3 68  1  0  0  0  0
  4  5  1  0  0  0  0
  4 56  1  0  0  0  0
  4 66  1  6  0  0  0
  5  6  1  0  0  0  0
  5 54  1  0  0  0  0
  5 55  1  0  0  0  0
  6  7  1  0  0  0  0
  6 52  1  0  0  0  0
  6 53  1  0  0  0  0
  7  8  1  0  0  0  0
  7 45  1  0  0  0  0
  8  9  1  0  0  0  0
  8 50  1  0  0  0  0
  8 51  1  0  0  0  0
  9 10  1  6  0  0  0
  9 30  1  0  0  0  0
  9 38  1  0  0  0  0
 10 11  2  0  0  0  0
 10 12  1  0  0  0  0
 12 13  1  0  0  0  0
 12 29  1  0  0  0  0
 13 14  2  0  0  0  0
 13 22  1  0  0  0  0
 14 15  1  0  0  0  0
 14 28  1  0  0  0  0
 15 16  2  0  0  0  0
 16 17  1  0  0  0  0
 16 27  1  0  0  0  0
 17 18  2  0  0  0  0
 17 22  1  0  0  0  0
 18 19  1  0  0  0  0
 18 26  1  0  0  0  0
 19 20  2  0  0  0  0
 19 25  1  0  0  0  0
 20 21  1  0  0  0  0
 20 24  1  0  0  0  0
 21 22  2  0  0  0  0
 21 23  1  0  0  0  0
 29 30  1  0  0  0  0
 29 36  1  0  0  0  0
 29 37  1  0  0  0  0
 30 31  1  0  0  0  0
 30 35  1  6  0  0  0
 31 32  1  0  0  0  0
 31 33  1  0  0  0  0
 31 34  1  0  0  0  0
 38 39  2  0  0  0  0
 38 44  1  0  0  0  0
 39 40  1  0  0  0  0
 39 49  1  0  0  0  0
 40 41  1  0  0  0  0
 40 42  2  0  0  0  0
 42 43  1  0  0  0  0
 42 48  1  0  0  0  0
 43 44  2  0  0  0  0
 43 47  1  0  0  0  0
 44 45  1  0  0  0  0
 45 46  2  0  0  0  0
 56 57  1  0  0  0  0
 56 61  1  0  0  0  0
 56 65  1  1  0  0  0
 57 58  1  0  0  0  0
 57 59  1  0  0  0  0
 57 60  1  0  0  0  0
 61 62  1  0  0  0  0
 61 63  1  0  0  0  0
 61 64  1  0  0  0  0
M  CHG  1   4   1
M  END
>  <MODEL>
       1

$$$$
