best_conformers_41.pdb
 OpenBabel02042510453D

 68 73  0  0  1  0  0  0  0  0999 V2000
    7.0770   -3.7680   23.0610 C   0  0  0  0  0  0  0  0  0  0  0  0
    7.3670   -2.5340   22.2190 C   0  0  1  0  0  0  0  0  0  0  0  0
    6.2070   -2.2060   21.2730 C   0  0  0  0  0  0  0  0  0  0  0  0
    6.4210   -0.8060   21.0000 N   0  0  0  0  0  0  0  0  0  0  0  0
    5.8480   -0.1510   19.8940 C   0  0  0  0  0  0  0  0  0  0  0  0
    6.3050   -0.4520   18.6370 C   0  0  0  0  0  0  0  0  0  0  0  0
    5.8380    0.1020   17.4940 N   0  0  0  0  0  0  0  0  0  0  0  0
    4.8580    0.9670   17.6180 C   0  0  0  0  0  0  0  0  0  0  0  0
    4.2750    1.3450   18.8590 C   0  0  0  0  0  0  0  0  0  0  0  0
    3.2160    2.2880   18.9240 C   0  0  0  0  0  0  0  0  0  0  0  0
    2.6450    2.6100   20.1240 C   0  0  0  0  0  0  0  0  0  0  0  0
    3.1040    2.0070   21.3180 C   0  0  0  0  0  0  0  0  0  0  0  0
    4.1400    1.1050   21.2850 C   0  0  0  0  0  0  0  0  0  0  0  0
    4.7630    0.7640   20.0480 C   0  0  0  0  0  0  0  0  0  0  0  0
    4.4950    0.6620   22.2120 H   0  0  0  0  0  0  0  0  0  0  0  0
    2.6360    2.2670   22.2660 H   0  0  0  0  0  0  0  0  0  0  0  0
    1.8340    3.3340   20.1680 H   0  0  0  0  0  0  0  0  0  0  0  0
    2.8800    2.7420   17.9970 H   0  0  0  0  0  0  0  0  0  0  0  0
    4.4730    1.4180   16.7070 H   0  0  0  0  0  0  0  0  0  0  0  0
    7.1150   -1.1720   18.5310 H   0  0  0  0  0  0  0  0  0  0  0  0
    7.1820   -0.1610   21.9500 C   0  0  0  0  0  0  0  0  0  0  0  0
    7.3800    1.0360   21.9700 O   0  0  0  0  0  0  0  0  0  0  0  0
    7.6570   -1.1920   22.9810 C   0  0  1  0  0  0  0  0  0  0  0  0
    6.7800   -0.9650   24.2440 C   0  0  0  0  0  0  0  0  0  0  0  0
    7.2610   -1.7070   25.3970 N   0  0  0  0  0  0  0  0  0  0  0  0
    6.3500   -2.2360   26.3990 C   0  0  0  0  0  0  0  0  0  0  0  0
    5.9380   -1.1910   27.4350 C   0  0  0  0  0  0  0  0  0  0  0  0
    5.0340   -1.7430   28.4860 N   0  3  0  0  0  0  0  0  0  0  0  0
    5.8150   -2.5000   29.5270 C   0  0  0  0  0  0  0  0  0  0  0  0
    4.9410   -3.4020   30.4120 C   0  0  0  0  0  0  0  0  0  0  0  0
    3.2640   -2.7660   30.4490 S   0  0  0  0  0  0  0  0  0  0  0  0
    2.6640   -3.0970   29.1460 O   0  0  0  0  0  0  0  0  0  0  0  0
    2.5950   -3.1450   31.6880 O   0  0  0  0  0  0  0  0  0  0  0  0
    3.5640   -1.0000   30.4260 C   0  0  0  0  0  0  0  0  0  0  0  0
    4.2120   -0.6280   29.0870 C   0  0  0  0  0  0  0  0  0  0  0  0
    4.8620    0.2390   29.2290 H   0  0  0  0  0  0  0  0  0  0  0  0
    3.4360   -0.3620   28.3670 H   0  0  0  0  0  0  0  0  0  0  0  0
    4.1810   -0.7220   31.2860 H   0  0  0  0  0  0  0  0  0  0  0  0
    2.5890   -0.5230   30.5350 H   0  0  0  0  0  0  0  0  0  0  0  0
    4.8580   -4.4200   30.0200 H   0  0  0  0  0  0  0  0  0  0  0  0
    5.3450   -3.4430   31.4260 H   0  0  0  0  0  0  0  0  0  0  0  0
    6.3400   -1.7780   30.1610 H   0  0  0  0  0  0  0  0  0  0  0  0
    6.5710   -3.1140   29.0300 H   0  0  0  0  0  0  0  0  0  0  0  0
    4.3540   -2.3930   28.0450 H   0  0  0  0  0  0  0  0  0  0  0  0
    6.8300   -0.7840   27.9250 H   0  0  0  0  0  0  0  0  0  0  0  0
    5.4380   -0.3550   26.9350 H   0  0  0  0  0  0  0  0  0  0  0  0
    6.8780   -3.0490   26.8980 H   0  0  0  0  0  0  0  0  0  0  0  0
    5.4550   -2.6480   25.9160 H   0  0  0  0  0  0  0  0  0  0  0  0
    8.5850   -1.7380   25.7230 C   0  0  0  0  0  0  0  0  0  0  0  0
    8.9810   -2.1490   26.8030 O   0  0  0  0  0  0  0  0  0  0  0  0
    9.5340   -1.2660   24.6780 C   0  0  0  0  0  0  0  0  0  0  0  0
   10.8660   -1.1470   25.0590 C   0  0  0  0  0  0  0  0  0  0  0  0
   11.8260   -0.7630   24.1470 C   0  0  0  0  0  0  0  0  0  0  0  0
   11.4210   -0.5070   22.8370 C   0  0  0  0  0  0  0  0  0  0  0  0
   12.6360   -0.0250   21.6840 Cl  0  0  0  0  0  0  0  0  0  0  0  0
   10.0960   -0.6240   22.4390 C   0  0  0  0  0  0  0  0  0  0  0  0
    9.1170   -1.0100   23.3690 C   0  0  0  0  0  0  0  0  0  0  0  0
    9.8380   -0.3890   21.4110 H   0  0  0  0  0  0  0  0  0  0  0  0
   12.8690   -0.6720   24.4330 H   0  0  0  0  0  0  0  0  0  0  0  0
   11.1240   -1.3740   26.0860 H   0  0  0  0  0  0  0  0  0  0  0  0
    6.7900    0.1190   24.4300 H   0  0  0  0  0  0  0  0  0  0  0  0
    5.7380   -1.2450   24.0430 H   0  0  0  0  0  0  0  0  0  0  0  0
    6.2090   -2.7910   20.3470 H   0  0  0  0  0  0  0  0  0  0  0  0
    5.2270   -2.3800   21.7530 H   0  0  0  0  0  0  0  0  0  0  0  0
    8.2520   -2.7200   21.5940 H   0  0  0  0  0  0  0  0  0  0  0  0
    6.9730   -4.6600   22.4290 H   0  0  0  0  0  0  0  0  0  0  0  0
    6.1360   -3.6380   23.6120 H   0  0  0  0  0  0  0  0  0  0  0  0
    7.8750   -3.9440   23.7880 H   0  0  0  0  0  0  0  0  0  0  0  0
  1  2  1  0  0  0  0
  1 66  1  0  0  0  0
  1 67  1  0  0  0  0
  1 68  1  0  0  0  0
  2  3  1  0  0  0  0
  2 23  1  0  0  0  0
  2 65  1  6  0  0  0
  3  4  1  0  0  0  0
  3 63  1  0  0  0  0
  3 64  1  0  0  0  0
  4  5  1  0  0  0  0
  4 21  1  0  0  0  0
  5  6  2  0  0  0  0
  5 14  1  0  0  0  0
  6  7  1  0  0  0  0
  6 20  1  0  0  0  0
  7  8  2  0  0  0  0
  8  9  1  0  0  0  0
  8 19  1  0  0  0  0
  9 10  2  0  0  0  0
  9 14  1  0  0  0  0
 10 11  1  0  0  0  0
 10 18  1  0  0  0  0
 11 12  2  0  0  0  0
 11 17  1  0  0  0  0
 12 13  1  0  0  0  0
 12 16  1  0  0  0  0
 13 14  2  0  0  0  0
 13 15  1  0  0  0  0
 21 22  2  0  0  0  0
 23 21  1  6  0  0  0
 23 24  1  0  0  0  0
 23 57  1  0  0  0  0
 24 25  1  0  0  0  0
 24 61  1  0  0  0  0
 24 62  1  0  0  0  0
 25 26  1  0  0  0  0
 25 49  1  0  0  0  0
 26 27  1  0  0  0  0
 26 47  1  0  0  0  0
 26 48  1  0  0  0  0
 27 28  1  0  0  0  0
 27 45  1  0  0  0  0
 27 46  1  0  0  0  0
 28 29  1  0  0  0  0
 28 35  1  0  0  0  0
 28 44  1  0  0  0  0
 29 30  1  0  0  0  0
 29 42  1  0  0  0  0
 29 43  1  0  0  0  0
 30 31  1  0  0  0  0
 30 40  1  0  0  0  0
 30 41  1  0  0  0  0
 31 32  2  0  0  0  0
 31 33  2  0  0  0  0
 31 34  1  0  0  0  0
 34 35  1  0  0  0  0
 34 38  1  0  0  0  0
 34 39  1  0  0  0  0
 35 36  1  0  0  0  0
 35 37  1  0  0  0  0
 49 50  2  0  0  0  0
 49 51  1  0  0  0  0
 51 52  2  0  0  0  0
 51 57  1  0  0  0  0
 52 53  1  0  0  0  0
 52 60  1  0  0  0  0
 53 54  2  0  0  0  0
 53 59  1  0  0  0  0
 54 55  1  0  0  0  0
 54 56  1  0  0  0  0
 56 57  2  0  0  0  0
 56 58  1  0  0  0  0
M  CHG  1  28   1
M  END
>  <MODEL>
       1

$$$$
best_conformers_41.pdb
 OpenBabel02042510453D

 68 73  0  0  1  0  0  0  0  0999 V2000
    6.7750   -3.6250   23.3320 C   0  0  0  0  0  0  0  0  0  0  0  0
    7.2440   -2.4810   22.4290 C   0  0  1  0  0  0  0  0  0  0  0  0
    6.2840   -2.2060   21.2610 C   0  0  0  0  0  0  0  0  0  0  0  0
    6.4530   -0.7910   20.9800 N   0  0  0  0  0  0  0  0  0  0  0  0
    5.8470   -0.1520   19.8690 C   0  0  0  0  0  0  0  0  0  0  0  0
    6.2590   -0.4580   18.5940 C   0  0  0  0  0  0  0  0  0  0  0  0
    5.7720    0.1140   17.4660 N   0  0  0  0  0  0  0  0  0  0  0  0
    4.8080    0.9960   17.6090 C   0  0  0  0  0  0  0  0  0  0  0  0
    4.2420    1.3650   18.8640 C   0  0  0  0  0  0  0  0  0  0  0  0
    3.1800    2.3100   18.9530 C   0  0  0  0  0  0  0  0  0  0  0  0
    2.6300    2.6220   20.1680 C   0  0  0  0  0  0  0  0  0  0  0  0
    3.1120    1.9990   21.3400 C   0  0  0  0  0  0  0  0  0  0  0  0
    4.1390    1.0910   21.2770 C   0  0  0  0  0  0  0  0  0  0  0  0
    4.7550    0.7660   20.0330 C   0  0  0  0  0  0  0  0  0  0  0  0
    4.4980    0.6240   22.1850 H   0  0  0  0  0  0  0  0  0  0  0  0
    2.6740    2.2510   22.3010 H   0  0  0  0  0  0  0  0  0  0  0  0
    1.8270    3.3510   20.2370 H   0  0  0  0  0  0  0  0  0  0  0  0
    2.8220    2.7770   18.0400 H   0  0  0  0  0  0  0  0  0  0  0  0
    4.4200    1.4580   16.7010 H   0  0  0  0  0  0  0  0  0  0  0  0
    7.0440   -1.1950   18.4350 H   0  0  0  0  0  0  0  0  0  0  0  0
    7.0960   -0.0990   21.9820 C   0  0  0  0  0  0  0  0  0  0  0  0
    7.2880    1.1030   21.9730 O   0  0  0  0  0  0  0  0  0  0  0  0
    7.4670   -1.0820   23.1090 C   0  0  1  0  0  0  0  0  0  0  0  0
    6.5210   -0.7710   24.2990 C   0  0  0  0  0  0  0  0  0  0  0  0
    6.9100   -1.4170   25.5390 N   0  0  0  0  0  0  0  0  0  0  0  0
    5.8600   -1.9000   26.4180 C   0  0  0  0  0  0  0  0  0  0  0  0
    5.0160   -0.7890   27.0390 C   0  0  0  0  0  0  0  0  0  0  0  0
    5.8390    0.1370   27.9010 N   0  3  0  0  0  0  0  0  0  0  0  0
    6.2480   -0.4400   29.2370 C   0  0  0  0  0  0  0  0  0  0  0  0
    5.1070   -0.7990   30.1720 C   0  0  0  0  0  0  0  0  0  0  0  0
    4.0900    0.6430   30.4720 S   0  0  0  0  0  0  0  0  0  0  0  0
    4.9050    1.5740   31.2540 O   0  0  0  0  0  0  0  0  0  0  0  0
    2.7890    0.1920   30.9460 O   0  0  0  0  0  0  0  0  0  0  0  0
    3.8790    1.4010   28.8610 C   0  0  0  0  0  0  0  0  0  0  0  0
    5.2010    1.4850   28.1050 C   0  0  0  0  0  0  0  0  0  0  0  0
    5.9110    2.1060   28.6530 H   0  0  0  0  0  0  0  0  0  0  0  0
    5.0210    1.9350   27.1300 H   0  0  0  0  0  0  0  0  0  0  0  0
    3.1200    0.8200   28.3330 H   0  0  0  0  0  0  0  0  0  0  0  0
    3.4810    2.3920   29.0890 H   0  0  0  0  0  0  0  0  0  0  0  0
    5.4940   -1.0560   31.1620 H   0  0  0  0  0  0  0  0  0  0  0  0
    4.4590   -1.6040   29.8160 H   0  0  0  0  0  0  0  0  0  0  0  0
    6.8730   -1.3110   29.0510 H   0  0  0  0  0  0  0  0  0  0  0  0
    6.8420    0.3360   29.7240 H   0  0  0  0  0  0  0  0  0  0  0  0
    6.7120    0.2670   27.3560 H   0  0  0  0  0  0  0  0  0  0  0  0
    4.2210   -1.2340   27.6380 H   0  0  0  0  0  0  0  0  0  0  0  0
    4.5480   -0.1790   26.2550 H   0  0  0  0  0  0  0  0  0  0  0  0
    5.1780   -2.5540   25.8620 H   0  0  0  0  0  0  0  0  0  0  0  0
    6.3490   -2.4870   27.1940 H   0  0  0  0  0  0  0  0  0  0  0  0
    8.2150   -1.5500   25.9070 C   0  0  0  0  0  0  0  0  0  0  0  0
    8.5400   -2.0020   26.9930 O   0  0  0  0  0  0  0  0  0  0  0  0
    9.2490   -1.1240   24.9090 C   0  0  0  0  0  0  0  0  0  0  0  0
   10.5790   -1.0280   25.3170 C   0  0  0  0  0  0  0  0  0  0  0  0
   11.5740   -0.7220   24.4040 C   0  0  0  0  0  0  0  0  0  0  0  0
   11.2260   -0.5330   23.0680 C   0  0  0  0  0  0  0  0  0  0  0  0
   12.4780   -0.1680   21.9180 Cl  0  0  0  0  0  0  0  0  0  0  0  0
    9.9110   -0.6310   22.6460 C   0  0  0  0  0  0  0  0  0  0  0  0
    8.8990   -0.9020   23.5750 C   0  0  0  0  0  0  0  0  0  0  0  0
    9.6750   -0.4840   21.5980 H   0  0  0  0  0  0  0  0  0  0  0  0
   12.6140   -0.6490   24.7030 H   0  0  0  0  0  0  0  0  0  0  0  0
   10.8080   -1.2210   26.3600 H   0  0  0  0  0  0  0  0  0  0  0  0
    5.5000   -1.0970   24.0510 H   0  0  0  0  0  0  0  0  0  0  0  0
    6.5260    0.3240   24.4260 H   0  0  0  0  0  0  0  0  0  0  0  0
    5.2420   -2.4340   21.5320 H   0  0  0  0  0  0  0  0  0  0  0  0
    6.5210   -2.7890   20.3710 H   0  0  0  0  0  0  0  0  0  0  0  0
    8.2260   -2.7470   22.0130 H   0  0  0  0  0  0  0  0  0  0  0  0
    5.7720   -3.4310   23.7300 H   0  0  0  0  0  0  0  0  0  0  0  0
    7.4480   -3.7680   24.1820 H   0  0  0  0  0  0  0  0  0  0  0  0
    6.7280   -4.5660   22.7740 H   0  0  0  0  0  0  0  0  0  0  0  0
  1  2  1  0  0  0  0
  1 66  1  0  0  0  0
  1 67  1  0  0  0  0
  1 68  1  0  0  0  0
  2  3  1  0  0  0  0
  2 23  1  0  0  0  0
  2 65  1  6  0  0  0
  3  4  1  0  0  0  0
  3 63  1  0  0  0  0
  3 64  1  0  0  0  0
  4  5  1  0  0  0  0
  4 21  1  0  0  0  0
  5  6  2  0  0  0  0
  5 14  1  0  0  0  0
  6  7  1  0  0  0  0
  6 20  1  0  0  0  0
  7  8  2  0  0  0  0
  8  9  1  0  0  0  0
  8 19  1  0  0  0  0
  9 10  2  0  0  0  0
  9 14  1  0  0  0  0
 10 11  1  0  0  0  0
 10 18  1  0  0  0  0
 11 12  2  0  0  0  0
 11 17  1  0  0  0  0
 12 13  1  0  0  0  0
 12 16  1  0  0  0  0
 13 14  2  0  0  0  0
 13 15  1  0  0  0  0
 21 22  2  0  0  0  0
 23 21  1  6  0  0  0
 23 24  1  0  0  0  0
 23 57  1  0  0  0  0
 24 25  1  0  0  0  0
 24 61  1  0  0  0  0
 24 62  1  0  0  0  0
 25 26  1  0  0  0  0
 25 49  1  0  0  0  0
 26 27  1  0  0  0  0
 26 47  1  0  0  0  0
 26 48  1  0  0  0  0
 27 28  1  0  0  0  0
 27 45  1  0  0  0  0
 27 46  1  0  0  0  0
 28 29  1  0  0  0  0
 28 35  1  0  0  0  0
 28 44  1  0  0  0  0
 29 30  1  0  0  0  0
 29 42  1  0  0  0  0
 29 43  1  0  0  0  0
 30 31  1  0  0  0  0
 30 40  1  0  0  0  0
 30 41  1  0  0  0  0
 31 32  2  0  0  0  0
 31 33  2  0  0  0  0
 31 34  1  0  0  0  0
 34 35  1  0  0  0  0
 34 38  1  0  0  0  0
 34 39  1  0  0  0  0
 35 36  1  0  0  0  0
 35 37  1  0  0  0  0
 49 50  2  0  0  0  0
 49 51  1  0  0  0  0
 51 52  2  0  0  0  0
 51 57  1  0  0  0  0
 52 53  1  0  0  0  0
 52 60  1  0  0  0  0
 53 54  2  0  0  0  0
 53 59  1  0  0  0  0
 54 55  1  0  0  0  0
 54 56  1  0  0  0  0
 56 57  2  0  0  0  0
 56 58  1  0  0  0  0
M  CHG  1  28   1
M  END
>  <MODEL>
       2

$$$$
