best_conformers_86.pdb
 OpenBabel02042510453D

 65 70  0  0  1  0  0  0  0  0999 V2000
    5.0450   -8.2430   25.4470 C   0  0  0  0  0  0  0  0  0  0  0  0
    4.5130   -7.0610   24.7980 N   0  0  0  0  0  0  0  0  0  0  0  0
    5.1760   -6.5550   23.7330 C   0  0  0  0  0  0  0  0  0  0  0  0
    6.1950   -7.0640   23.2880 O   0  0  0  0  0  0  0  0  0  0  0  0
    4.5720   -5.2850   23.1190 C   0  0  0  0  0  0  0  0  0  0  0  0
    5.1520   -4.0690   23.6540 N   0  0  0  0  0  0  0  0  0  0  0  0
    6.4770   -3.6590   23.2170 C   0  0  0  0  0  0  0  0  0  0  0  0
    6.5540   -2.1290   22.9830 C   0  0  2  0  0  0  0  0  0  0  0  0
    5.6890   -1.7440   21.7620 C   0  0  0  0  0  0  0  0  0  0  0  0
    4.5580   -2.1170   21.5340 O   0  0  0  0  0  0  0  0  0  0  0  0
    6.3990   -0.8730   20.9660 N   0  0  0  0  0  0  0  0  0  0  0  0
    5.8030   -0.2080   19.8580 C   0  0  0  0  0  0  0  0  0  0  0  0
    6.2550   -0.4580   18.5860 C   0  0  0  0  0  0  0  0  0  0  0  0
    5.7780    0.1310   17.4610 N   0  0  0  0  0  0  0  0  0  0  0  0
    4.8040    1.0010   17.6050 C   0  0  0  0  0  0  0  0  0  0  0  0
    4.2380    1.3640   18.8610 C   0  0  0  0  0  0  0  0  0  0  0  0
    3.1900    2.3230   18.9550 C   0  0  0  0  0  0  0  0  0  0  0  0
    2.6770    2.6700   20.1750 C   0  0  0  0  0  0  0  0  0  0  0  0
    3.1980    2.0840   21.3520 C   0  0  0  0  0  0  0  0  0  0  0  0
    4.2130    1.1610   21.2900 C   0  0  0  0  0  0  0  0  0  0  0  0
    4.7520    0.7570   20.0320 C   0  0  0  0  0  0  0  0  0  0  0  0
    4.6040    0.7240   22.2090 H   0  0  0  0  0  0  0  0  0  0  0  0
    2.7850    2.3680   22.3160 H   0  0  0  0  0  0  0  0  0  0  0  0
    1.8760    3.4020   20.2490 H   0  0  0  0  0  0  0  0  0  0  0  0
    2.8140    2.7780   18.0410 H   0  0  0  0  0  0  0  0  0  0  0  0
    4.4130    1.4640   16.6980 H   0  0  0  0  0  0  0  0  0  0  0  0
    7.0450   -1.1900   18.4260 H   0  0  0  0  0  0  0  0  0  0  0  0
    7.7570   -0.6250   21.4120 C   0  0  0  0  0  0  0  0  0  0  0  0
    7.9780   -1.5970   22.5980 C   0  0  2  0  0  0  0  0  0  0  0  0
    9.0570   -2.6540   22.2450 C   0  0  0  0  0  0  0  0  0  0  0  0
   10.3650   -2.0690   21.9870 N   0  0  0  0  0  0  0  0  0  0  0  0
   11.1970   -1.6120   22.9400 C   0  0  0  0  0  0  0  0  0  0  0  0
   12.3520   -1.0520   22.5070 N   0  0  0  0  0  0  0  0  0  0  0  0
   13.1230   -0.6000   23.4810 C   0  0  0  0  0  0  0  0  0  0  0  0
   12.8720   -0.6630   24.7960 N   0  0  0  0  0  0  0  0  0  0  0  0
   11.7170   -1.2550   25.0890 C   0  0  0  0  0  0  0  0  0  0  0  0
   10.8270   -1.7380   24.2290 N   0  0  0  0  0  0  0  0  0  0  0  0
   11.4650   -1.3500   26.1460 H   0  0  0  0  0  0  0  0  0  0  0  0
   14.0650   -0.1210   23.2000 H   0  0  0  0  0  0  0  0  0  0  0  0
   10.7380   -2.0160   21.0520 H   0  0  0  0  0  0  0  0  0  0  0  0
    9.1650   -3.3730   23.0650 H   0  0  0  0  0  0  0  0  0  0  0  0
    8.7790   -3.1900   21.3360 H   0  0  0  0  0  0  0  0  0  0  0  0
    8.4020   -1.0740   23.4620 H   0  0  0  0  0  0  0  0  0  0  0  0
    7.8900    0.4240   21.7140 H   0  0  0  0  0  0  0  0  0  0  0  0
    8.4570   -0.8020   20.5860 H   0  0  0  0  0  0  0  0  0  0  0  0
    5.9660   -1.4460   24.2210 C   0  0  0  0  0  0  0  0  0  0  0  0
    6.2510   -0.0980   24.4870 C   0  0  0  0  0  0  0  0  0  0  0  0
    5.6850    0.5320   25.5820 C   0  0  0  0  0  0  0  0  0  0  0  0
    6.0600    2.2030   25.9040 Cl  0  0  0  0  0  0  0  0  0  0  0  0
    4.8130   -0.1370   26.4360 C   0  0  0  0  0  0  0  0  0  0  0  0
    4.4910   -1.4500   26.1520 C   0  0  0  0  0  0  0  0  0  0  0  0
    5.0390   -2.1010   25.0470 C   0  0  0  0  0  0  0  0  0  0  0  0
    4.5530   -3.4860   24.7280 C   0  0  0  0  0  0  0  0  0  0  0  0
    3.6590   -4.0550   25.3560 O   0  0  0  0  0  0  0  0  0  0  0  0
    3.7870   -1.9980   26.7680 H   0  0  0  0  0  0  0  0  0  0  0  0
    4.3880    0.3830   27.2880 H   0  0  0  0  0  0  0  0  0  0  0  0
    6.8990    0.4920   23.8450 H   0  0  0  0  0  0  0  0  0  0  0  0
    6.6940   -4.2020   22.2960 H   0  0  0  0  0  0  0  0  0  0  0  0
    7.2190   -3.9460   23.9770 H   0  0  0  0  0  0  0  0  0  0  0  0
    3.4890   -5.2390   23.2660 H   0  0  0  0  0  0  0  0  0  0  0  0
    4.7840   -5.3130   22.0470 H   0  0  0  0  0  0  0  0  0  0  0  0
    3.6720   -6.6080   25.1250 H   0  0  0  0  0  0  0  0  0  0  0  0
    5.1200   -9.0390   24.7080 H   0  0  0  0  0  0  0  0  0  0  0  0
    4.3840   -8.5410   26.2620 H   0  0  0  0  0  0  0  0  0  0  0  0
    6.0520   -8.0590   25.8430 H   0  0  0  0  0  0  0  0  0  0  0  0
  1  2  1  0  0  0  0
  1 63  1  0  0  0  0
  1 64  1  0  0  0  0
  1 65  1  0  0  0  0
  2  3  1  0  0  0  0
  2 62  1  0  0  0  0
  3  4  2  0  0  0  0
  3  5  1  0  0  0  0
  5  6  1  0  0  0  0
  5 60  1  0  0  0  0
  5 61  1  0  0  0  0
  6  7  1  0  0  0  0
  6 53  1  0  0  0  0
  7  8  1  0  0  0  0
  7 58  1  0  0  0  0
  7 59  1  0  0  0  0
  8  9  1  6  0  0  0
  8 29  1  0  0  0  0
  8 46  1  0  0  0  0
  9 10  2  0  0  0  0
  9 11  1  0  0  0  0
 11 12  1  0  0  0  0
 11 28  1  0  0  0  0
 12 13  2  0  0  0  0
 12 21  1  0  0  0  0
 13 14  1  0  0  0  0
 13 27  1  0  0  0  0
 14 15  2  0  0  0  0
 15 16  1  0  0  0  0
 15 26  1  0  0  0  0
 16 17  2  0  0  0  0
 16 21  1  0  0  0  0
 17 18  1  0  0  0  0
 17 25  1  0  0  0  0
 18 19  2  0  0  0  0
 18 24  1  0  0  0  0
 19 20  1  0  0  0  0
 19 23  1  0  0  0  0
 20 21  2  0  0  0  0
 20 22  1  0  0  0  0
 28 29  1  0  0  0  0
 28 44  1  0  0  0  0
 28 45  1  0  0  0  0
 29 30  1  0  0  0  0
 29 43  1  1  0  0  0
 30 31  1  0  0  0  0
 30 41  1  0  0  0  0
 30 42  1  0  0  0  0
 31 32  1  0  0  0  0
 31 40  1  0  0  0  0
 32 33  2  0  0  0  0
 32 37  1  0  0  0  0
 33 34  1  0  0  0  0
 34 35  2  0  0  0  0
 34 39  1  0  0  0  0
 35 36  1  0  0  0  0
 36 37  2  0  0  0  0
 36 38  1  0  0  0  0
 46 47  2  0  0  0  0
 46 52  1  0  0  0  0
 47 48  1  0  0  0  0
 47 57  1  0  0  0  0
 48 49  1  0  0  0  0
 48 50  2  0  0  0  0
 50 51  1  0  0  0  0
 50 56  1  0  0  0  0
 51 52  2  0  0  0  0
 51 55  1  0  0  0  0
 52 53  1  0  0  0  0
 53 54  2  0  0  0  0
M  END
>  <MODEL>
       1

$$$$
best_conformers_86.pdb
 OpenBabel02042510453D

 65 70  0  0  1  0  0  0  0  0999 V2000
    5.7280   -0.1250   29.6800 C   0  0  0  0  0  0  0  0  0  0  0  0
    6.0790   -1.1130   28.6840 N   0  0  0  0  0  0  0  0  0  0  0  0
    5.5870   -0.9930   27.4230 C   0  0  0  0  0  0  0  0  0  0  0  0
    4.7880   -0.1310   27.0990 O   0  0  0  0  0  0  0  0  0  0  0  0
    6.0790   -2.0340   26.4260 C   0  0  0  0  0  0  0  0  0  0  0  0
    7.0510   -1.4950   25.4960 N   0  0  0  0  0  0  0  0  0  0  0  0
    6.6040   -0.8220   24.2890 C   0  0  0  0  0  0  0  0  0  0  0  0
    7.5260   -1.0860   23.0740 C   0  0  2  0  0  0  0  0  0  0  0  0
    7.0920   -0.1050   21.9750 C   0  0  0  0  0  0  0  0  0  0  0  0
    7.2580    1.0990   21.9640 O   0  0  0  0  0  0  0  0  0  0  0  0
    6.4360   -0.8010   20.9890 N   0  0  0  0  0  0  0  0  0  0  0  0
    5.8360   -0.1670   19.8770 C   0  0  0  0  0  0  0  0  0  0  0  0
    6.2710   -0.4650   18.6070 C   0  0  0  0  0  0  0  0  0  0  0  0
    5.7930    0.1080   17.4760 N   0  0  0  0  0  0  0  0  0  0  0  0
    4.8240    0.9830   17.6190 C   0  0  0  0  0  0  0  0  0  0  0  0
    4.2570    1.3540   18.8710 C   0  0  0  0  0  0  0  0  0  0  0  0
    3.1970    2.2960   18.9540 C   0  0  0  0  0  0  0  0  0  0  0  0
    2.6380    2.6120   20.1610 C   0  0  0  0  0  0  0  0  0  0  0  0
    3.1110    1.9960   21.3420 C   0  0  0  0  0  0  0  0  0  0  0  0
    4.1400    1.0900   21.2900 C   0  0  0  0  0  0  0  0  0  0  0  0
    4.7580    0.7600   20.0480 C   0  0  0  0  0  0  0  0  0  0  0  0
    4.4900    0.6310   22.2100 H   0  0  0  0  0  0  0  0  0  0  0  0
    2.6620    2.2490   22.2980 H   0  0  0  0  0  0  0  0  0  0  0  0
    1.8340    3.3420   20.2240 H   0  0  0  0  0  0  0  0  0  0  0  0
    2.8450    2.7600   18.0380 H   0  0  0  0  0  0  0  0  0  0  0  0
    4.4310    1.4400   16.7120 H   0  0  0  0  0  0  0  0  0  0  0  0
    7.0680   -1.1960   18.4630 H   0  0  0  0  0  0  0  0  0  0  0  0
    6.3150   -2.2200   21.2530 C   0  0  0  0  0  0  0  0  0  0  0  0
    7.3300   -2.4790   22.3750 C   0  0  2  0  0  0  0  0  0  0  0  0
    6.9490   -3.6380   23.2960 C   0  0  0  0  0  0  0  0  0  0  0  0
    6.9040   -4.9050   22.5970 N   0  0  0  0  0  0  0  0  0  0  0  0
    6.6670   -6.0560   23.2460 C   0  0  0  0  0  0  0  0  0  0  0  0
    6.2020   -6.0180   24.5080 N   0  0  0  0  0  0  0  0  0  0  0  0
    5.9780   -7.2170   25.0380 C   0  0  0  0  0  0  0  0  0  0  0  0
    6.1780   -8.3970   24.4570 N   0  0  0  0  0  0  0  0  0  0  0  0
    6.6470   -8.2870   23.2070 C   0  0  0  0  0  0  0  0  0  0  0  0
    6.9120   -7.1800   22.5450 N   0  0  0  0  0  0  0  0  0  0  0  0
    6.8440   -9.2000   22.6550 H   0  0  0  0  0  0  0  0  0  0  0  0
    5.5830   -7.2360   26.0540 H   0  0  0  0  0  0  0  0  0  0  0  0
    7.2840   -5.0260   21.6700 H   0  0  0  0  0  0  0  0  0  0  0  0
    7.6510   -3.7020   24.1320 H   0  0  0  0  0  0  0  0  0  0  0  0
    5.9690   -3.4800   23.7520 H   0  0  0  0  0  0  0  0  0  0  0  0
    8.2970   -2.7340   21.9200 H   0  0  0  0  0  0  0  0  0  0  0  0
    5.2950   -2.4650   21.5760 H   0  0  0  0  0  0  0  0  0  0  0  0
    6.5050   -2.7740   20.3350 H   0  0  0  0  0  0  0  0  0  0  0  0
    8.9550   -0.8410   23.5170 C   0  0  0  0  0  0  0  0  0  0  0  0
    9.9420   -0.5070   22.5790 C   0  0  0  0  0  0  0  0  0  0  0  0
   11.2550   -0.3480   22.9950 C   0  0  0  0  0  0  0  0  0  0  0  0
   12.4940    0.0720   21.8430 Cl  0  0  0  0  0  0  0  0  0  0  0  0
   11.6200   -0.5170   24.3330 C   0  0  0  0  0  0  0  0  0  0  0  0
   10.6560   -0.8770   25.2560 C   0  0  0  0  0  0  0  0  0  0  0  0
    9.3370   -1.0470   24.8470 C   0  0  0  0  0  0  0  0  0  0  0  0
    8.3640   -1.5390   25.8630 C   0  0  0  0  0  0  0  0  0  0  0  0
    8.7340   -1.9960   26.9360 O   0  0  0  0  0  0  0  0  0  0  0  0
   10.8770   -1.0520   26.3080 H   0  0  0  0  0  0  0  0  0  0  0  0
   12.6560   -0.4010   24.6260 H   0  0  0  0  0  0  0  0  0  0  0  0
    9.6840   -0.3660   21.5340 H   0  0  0  0  0  0  0  0  0  0  0  0
    6.5820    0.2630   24.4520 H   0  0  0  0  0  0  0  0  0  0  0  0
    5.5830   -1.1590   24.0660 H   0  0  0  0  0  0  0  0  0  0  0  0
    6.5600   -2.8650   26.9400 H   0  0  0  0  0  0  0  0  0  0  0  0
    5.2020   -2.3790   25.8670 H   0  0  0  0  0  0  0  0  0  0  0  0
    6.8670   -1.7230   28.8440 H   0  0  0  0  0  0  0  0  0  0  0  0
    5.9970    0.8760   29.3360 H   0  0  0  0  0  0  0  0  0  0  0  0
    6.2430   -0.3440   30.6180 H   0  0  0  0  0  0  0  0  0  0  0  0
    4.6500   -0.1250   29.8540 H   0  0  0  0  0  0  0  0  0  0  0  0
  1  2  1  0  0  0  0
  1 63  1  0  0  0  0
  1 64  1  0  0  0  0
  1 65  1  0  0  0  0
  2  3  1  0  0  0  0
  2 62  1  0  0  0  0
  3  4  2  0  0  0  0
  3  5  1  0  0  0  0
  5  6  1  0  0  0  0
  5 60  1  0  0  0  0
  5 61  1  0  0  0  0
  6  7  1  0  0  0  0
  6 53  1  0  0  0  0
  7  8  1  0  0  0  0
  7 58  1  0  0  0  0
  7 59  1  0  0  0  0
  8  9  1  6  0  0  0
  8 29  1  0  0  0  0
  8 46  1  0  0  0  0
  9 10  2  0  0  0  0
  9 11  1  0  0  0  0
 11 12  1  0  0  0  0
 11 28  1  0  0  0  0
 12 13  2  0  0  0  0
 12 21  1  0  0  0  0
 13 14  1  0  0  0  0
 13 27  1  0  0  0  0
 14 15  2  0  0  0  0
 15 16  1  0  0  0  0
 15 26  1  0  0  0  0
 16 17  2  0  0  0  0
 16 21  1  0  0  0  0
 17 18  1  0  0  0  0
 17 25  1  0  0  0  0
 18 19  2  0  0  0  0
 18 24  1  0  0  0  0
 19 20  1  0  0  0  0
 19 23  1  0  0  0  0
 20 21  2  0  0  0  0
 20 22  1  0  0  0  0
 28 29  1  0  0  0  0
 28 44  1  0  0  0  0
 28 45  1  0  0  0  0
 29 30  1  0  0  0  0
 29 43  1  6  0  0  0
 30 31  1  0  0  0  0
 30 41  1  0  0  0  0
 30 42  1  0  0  0  0
 31 32  1  0  0  0  0
 31 40  1  0  0  0  0
 32 33  2  0  0  0  0
 32 37  1  0  0  0  0
 33 34  1  0  0  0  0
 34 35  2  0  0  0  0
 34 39  1  0  0  0  0
 35 36  1  0  0  0  0
 36 37  2  0  0  0  0
 36 38  1  0  0  0  0
 46 47  2  0  0  0  0
 46 52  1  0  0  0  0
 47 48  1  0  0  0  0
 47 57  1  0  0  0  0
 48 49  1  0  0  0  0
 48 50  2  0  0  0  0
 50 51  1  0  0  0  0
 50 56  1  0  0  0  0
 51 52  2  0  0  0  0
 51 55  1  0  0  0  0
 52 53  1  0  0  0  0
 53 54  2  0  0  0  0
M  END
>  <MODEL>
       2

$$$$
best_conformers_86.pdb
 OpenBabel02042510453D

 65 70  0  0  1  0  0  0  0  0999 V2000
    5.0590   -8.1590   25.5790 C   0  0  0  0  0  0  0  0  0  0  0  0
    4.5090   -7.0200   24.8660 N   0  0  0  0  0  0  0  0  0  0  0  0
    5.1770   -6.5190   23.8000 C   0  0  0  0  0  0  0  0  0  0  0  0
    6.2000   -7.0270   23.3670 O   0  0  0  0  0  0  0  0  0  0  0  0
    4.5700   -5.2570   23.1610 C   0  0  0  0  0  0  0  0  0  0  0  0
    5.1230   -4.0230   23.6810 N   0  0  0  0  0  0  0  0  0  0  0  0
    6.4620   -3.6210   23.2770 C   0  0  0  0  0  0  0  0  0  0  0  0
    6.5460   -2.0970   23.0020 C   0  0  2  0  0  0  0  0  0  0  0  0
    5.6920   -1.7400   21.7640 C   0  0  0  0  0  0  0  0  0  0  0  0
    4.5660   -2.1240   21.5280 O   0  0  0  0  0  0  0  0  0  0  0  0
    6.4030   -0.8780   20.9600 N   0  0  0  0  0  0  0  0  0  0  0  0
    5.8040   -0.2080   19.8560 C   0  0  0  0  0  0  0  0  0  0  0  0
    6.2540   -0.4570   18.5840 C   0  0  0  0  0  0  0  0  0  0  0  0
    5.7770    0.1320   17.4590 N   0  0  0  0  0  0  0  0  0  0  0  0
    4.8030    1.0020   17.6040 C   0  0  0  0  0  0  0  0  0  0  0  0
    4.2380    1.3650   18.8610 C   0  0  0  0  0  0  0  0  0  0  0  0
    3.1900    2.3240   18.9550 C   0  0  0  0  0  0  0  0  0  0  0  0
    2.6780    2.6700   20.1750 C   0  0  0  0  0  0  0  0  0  0  0  0
    3.1990    2.0840   21.3520 C   0  0  0  0  0  0  0  0  0  0  0  0
    4.2130    1.1610   21.2890 C   0  0  0  0  0  0  0  0  0  0  0  0
    4.7520    0.7570   20.0310 C   0  0  0  0  0  0  0  0  0  0  0  0
    4.6030    0.7230   22.2080 H   0  0  0  0  0  0  0  0  0  0  0  0
    2.7850    2.3680   22.3160 H   0  0  0  0  0  0  0  0  0  0  0  0
    1.8770    3.4020   20.2490 H   0  0  0  0  0  0  0  0  0  0  0  0
    2.8140    2.7790   18.0400 H   0  0  0  0  0  0  0  0  0  0  0  0
    4.4120    1.4650   16.6970 H   0  0  0  0  0  0  0  0  0  0  0  0
    7.0450   -1.1880   18.4270 H   0  0  0  0  0  0  0  0  0  0  0  0
    7.7490   -0.6030   21.4290 C   0  0  0  0  0  0  0  0  0  0  0  0
    7.9740   -1.5690   22.6180 C   0  0  2  0  0  0  0  0  0  0  0  0
    9.0620   -2.6160   22.2560 C   0  0  0  0  0  0  0  0  0  0  0  0
    9.5520   -3.3970   23.3810 N   0  0  0  0  0  0  0  0  0  0  0  0
   10.3480   -2.9160   24.3530 C   0  0  0  0  0  0  0  0  0  0  0  0
   10.6540   -3.7810   25.3480 N   0  0  0  0  0  0  0  0  0  0  0  0
   11.4010   -3.2550   26.3030 C   0  0  0  0  0  0  0  0  0  0  0  0
   11.8820   -2.0040   26.3410 N   0  0  0  0  0  0  0  0  0  0  0  0
   11.5370   -1.2670   25.2870 C   0  0  0  0  0  0  0  0  0  0  0  0
   10.7670   -1.6400   24.2690 N   0  0  0  0  0  0  0  0  0  0  0  0
   11.9160   -0.2430   25.2550 H   0  0  0  0  0  0  0  0  0  0  0  0
   11.6610   -3.8930   27.1540 H   0  0  0  0  0  0  0  0  0  0  0  0
    9.4160   -4.3940   23.4250 H   0  0  0  0  0  0  0  0  0  0  0  0
    9.9190   -2.0860   21.8150 H   0  0  0  0  0  0  0  0  0  0  0  0
    8.6760   -3.3230   21.5180 H   0  0  0  0  0  0  0  0  0  0  0  0
    8.4030   -1.0370   23.4710 H   0  0  0  0  0  0  0  0  0  0  0  0
    7.8470    0.4460   21.7400 H   0  0  0  0  0  0  0  0  0  0  0  0
    8.4700   -0.7580   20.6180 H   0  0  0  0  0  0  0  0  0  0  0  0
    5.9440   -1.3900   24.2220 C   0  0  0  0  0  0  0  0  0  0  0  0
    6.2490   -0.0470   24.4880 C   0  0  0  0  0  0  0  0  0  0  0  0
    5.6650    0.6020   25.5640 C   0  0  0  0  0  0  0  0  0  0  0  0
    6.0620    2.2670   25.8860 Cl  0  0  0  0  0  0  0  0  0  0  0  0
    4.7570   -0.0450   26.3970 C   0  0  0  0  0  0  0  0  0  0  0  0
    4.4180   -1.3540   26.1140 C   0  0  0  0  0  0  0  0  0  0  0  0
    4.9840   -2.0230   25.0290 C   0  0  0  0  0  0  0  0  0  0  0  0
    4.4930   -3.4100   24.7190 C   0  0  0  0  0  0  0  0  0  0  0  0
    3.5720   -3.9550   25.3290 O   0  0  0  0  0  0  0  0  0  0  0  0
    3.6890   -1.8880   26.7130 H   0  0  0  0  0  0  0  0  0  0  0  0
    4.3180    0.4880   27.2330 H   0  0  0  0  0  0  0  0  0  0  0  0
    6.9290    0.5250   23.8620 H   0  0  0  0  0  0  0  0  0  0  0  0
    7.1790   -3.8720   24.0690 H   0  0  0  0  0  0  0  0  0  0  0  0
    6.7070   -4.1890   22.3800 H   0  0  0  0  0  0  0  0  0  0  0  0
    4.8020   -5.3010   22.0930 H   0  0  0  0  0  0  0  0  0  0  0  0
    3.4840   -5.2170   23.2840 H   0  0  0  0  0  0  0  0  0  0  0  0
    3.6900   -6.5380   25.2090 H   0  0  0  0  0  0  0  0  0  0  0  0
    4.3980   -8.4130   26.4110 H   0  0  0  0  0  0  0  0  0  0  0  0
    5.1430   -9.0130   24.9060 H   0  0  0  0  0  0  0  0  0  0  0  0
    6.0650   -7.9450   25.9620 H   0  0  0  0  0  0  0  0  0  0  0  0
  1  2  1  0  0  0  0
  1 63  1  0  0  0  0
  1 64  1  0  0  0  0
  1 65  1  0  0  0  0
  2  3  1  0  0  0  0
  2 62  1  0  0  0  0
  3  4  2  0  0  0  0
  3  5  1  0  0  0  0
  5  6  1  0  0  0  0
  5 60  1  0  0  0  0
  5 61  1  0  0  0  0
  6  7  1  0  0  0  0
  6 53  1  0  0  0  0
  7  8  1  0  0  0  0
  7 58  1  0  0  0  0
  7 59  1  0  0  0  0
  8  9  1  6  0  0  0
  8 29  1  0  0  0  0
  8 46  1  0  0  0  0
  9 10  2  0  0  0  0
  9 11  1  0  0  0  0
 11 12  1  0  0  0  0
 11 28  1  0  0  0  0
 12 13  2  0  0  0  0
 12 21  1  0  0  0  0
 13 14  1  0  0  0  0
 13 27  1  0  0  0  0
 14 15  2  0  0  0  0
 15 16  1  0  0  0  0
 15 26  1  0  0  0  0
 16 17  2  0  0  0  0
 16 21  1  0  0  0  0
 17 18  1  0  0  0  0
 17 25  1  0  0  0  0
 18 19  2  0  0  0  0
 18 24  1  0  0  0  0
 19 20  1  0  0  0  0
 19 23  1  0  0  0  0
 20 21  2  0  0  0  0
 20 22  1  0  0  0  0
 28 29  1  0  0  0  0
 28 44  1  0  0  0  0
 28 45  1  0  0  0  0
 29 30  1  0  0  0  0
 29 43  1  1  0  0  0
 30 31  1  0  0  0  0
 30 41  1  0  0  0  0
 30 42  1  0  0  0  0
 31 32  1  0  0  0  0
 31 40  1  0  0  0  0
 32 33  2  0  0  0  0
 32 37  1  0  0  0  0
 33 34  1  0  0  0  0
 34 35  2  0  0  0  0
 34 39  1  0  0  0  0
 35 36  1  0  0  0  0
 36 37  2  0  0  0  0
 36 38  1  0  0  0  0
 46 47  2  0  0  0  0
 46 52  1  0  0  0  0
 47 48  1  0  0  0  0
 47 57  1  0  0  0  0
 48 49  1  0  0  0  0
 48 50  2  0  0  0  0
 50 51  1  0  0  0  0
 50 56  1  0  0  0  0
 51 52  2  0  0  0  0
 51 55  1  0  0  0  0
 52 53  1  0  0  0  0
 53 54  2  0  0  0  0
M  END
>  <MODEL>
       3

$$$$
