best_conformers_51.pdb
 OpenBabel02042510453D

 67 73  0  0  1  0  0  0  0  0999 V2000
    3.6190    1.7880   28.3320 C   0  0  0  0  0  0  0  0  0  0  0  0
    4.5420    0.6230   28.2630 C   0  0  0  0  0  0  0  0  0  0  0  0
    5.2890    0.1530   29.2000 N   0  0  0  0  0  0  0  0  0  0  0  0
    5.9660   -0.9290   28.6530 N   0  0  0  0  0  0  0  0  0  0  0  0
    5.5800   -1.0300   27.4360 C   0  0  0  0  0  0  0  0  0  0  0  0
    6.0220   -2.0350   26.4140 C   0  0  0  0  0  0  0  0  0  0  0  0
    7.0070   -1.5050   25.4880 N   0  0  0  0  0  0  0  0  0  0  0  0
    6.5850   -0.8230   24.2750 C   0  0  0  0  0  0  0  0  0  0  0  0
    7.5070   -1.1080   23.0620 C   0  0  2  0  0  0  0  0  0  0  0  0
    7.0920   -0.1190   21.9630 C   0  0  0  0  0  0  0  0  0  0  0  0
    7.2680    1.0840   21.9550 O   0  0  0  0  0  0  0  0  0  0  0  0
    6.4310   -0.8080   20.9750 N   0  0  0  0  0  0  0  0  0  0  0  0
    5.8320   -0.1660   19.8680 C   0  0  0  0  0  0  0  0  0  0  0  0
    6.2640   -0.4640   18.5990 C   0  0  0  0  0  0  0  0  0  0  0  0
    5.7890    0.1120   17.4680 N   0  0  0  0  0  0  0  0  0  0  0  0
    4.8210    0.9880   17.6120 C   0  0  0  0  0  0  0  0  0  0  0  0
    4.2530    1.3570   18.8660 C   0  0  0  0  0  0  0  0  0  0  0  0
    3.1940    2.3000   18.9520 C   0  0  0  0  0  0  0  0  0  0  0  0
    2.6390    2.6140   20.1620 C   0  0  0  0  0  0  0  0  0  0  0  0
    3.1130    1.9980   21.3420 C   0  0  0  0  0  0  0  0  0  0  0  0
    4.1400    1.0910   21.2870 C   0  0  0  0  0  0  0  0  0  0  0  0
    4.7540    0.7600   20.0420 C   0  0  0  0  0  0  0  0  0  0  0  0
    4.4930    0.6310   22.2050 H   0  0  0  0  0  0  0  0  0  0  0  0
    2.6650    2.2510   22.2980 H   0  0  0  0  0  0  0  0  0  0  0  0
    1.8340    3.3430   20.2250 H   0  0  0  0  0  0  0  0  0  0  0  0
    2.8410    2.7640   18.0360 H   0  0  0  0  0  0  0  0  0  0  0  0
    4.4280    1.4480   16.7060 H   0  0  0  0  0  0  0  0  0  0  0  0
    7.0610   -1.1950   18.4590 H   0  0  0  0  0  0  0  0  0  0  0  0
    6.2840   -2.2230   21.2380 C   0  0  0  0  0  0  0  0  0  0  0  0
    7.2860   -2.4960   22.3650 C   0  0  2  0  0  0  0  0  0  0  0  0
    6.8600   -3.6360   23.2900 C   0  0  0  0  0  0  0  0  0  0  0  0
    6.7820   -4.8930   22.5830 N   0  0  0  0  0  0  0  0  0  0  0  0
    6.5870   -6.0700   23.2270 C   0  0  0  0  0  0  0  0  0  0  0  0
    6.1120   -6.1550   24.5540 C   0  0  0  0  0  0  0  0  0  0  0  0
    5.8350   -7.4290   25.0150 C   0  0  0  0  0  0  0  0  0  0  0  0
    6.0930   -8.5420   24.3190 N   0  0  0  0  0  0  0  0  0  0  0  0
    6.6150   -8.3320   23.1120 C   0  0  0  0  0  0  0  0  0  0  0  0
    6.8540   -7.1710   22.5150 N   0  0  0  0  0  0  0  0  0  0  0  0
    6.8260   -9.1990   22.4870 H   0  0  0  0  0  0  0  0  0  0  0  0
    5.3720   -7.5720   25.9910 H   0  0  0  0  0  0  0  0  0  0  0  0
    5.9410   -5.2720   25.1650 H   0  0  0  0  0  0  0  0  0  0  0  0
    7.1900   -4.9770   21.6630 H   0  0  0  0  0  0  0  0  0  0  0  0
    5.8820   -3.4130   23.7340 H   0  0  0  0  0  0  0  0  0  0  0  0
    7.5680   -3.7130   24.1230 H   0  0  0  0  0  0  0  0  0  0  0  0
    8.2490   -2.7750   21.9170 H   0  0  0  0  0  0  0  0  0  0  0  0
    6.4750   -2.7860   20.3260 H   0  0  0  0  0  0  0  0  0  0  0  0
    5.2570   -2.4540   21.5520 H   0  0  0  0  0  0  0  0  0  0  0  0
    8.9370   -0.8920   23.5090 C   0  0  0  0  0  0  0  0  0  0  0  0
    9.9360   -0.5810   22.5770 C   0  0  0  0  0  0  0  0  0  0  0  0
   11.2490   -0.4480   22.9990 C   0  0  0  0  0  0  0  0  0  0  0  0
   12.4990   -0.0620   21.8460 Cl  0  0  0  0  0  0  0  0  0  0  0  0
   11.6050   -0.6210   24.3380 C   0  0  0  0  0  0  0  0  0  0  0  0
   10.6260   -0.9580   25.2550 C   0  0  0  0  0  0  0  0  0  0  0  0
    9.3060   -1.1030   24.8400 C   0  0  0  0  0  0  0  0  0  0  0  0
    8.3230   -1.5960   25.8480 C   0  0  0  0  0  0  0  0  0  0  0  0
    8.6890   -2.0980   26.9000 O   0  0  0  0  0  0  0  0  0  0  0  0
   10.8420   -1.1350   26.3050 H   0  0  0  0  0  0  0  0  0  0  0  0
   12.6420   -0.5260   24.6390 H   0  0  0  0  0  0  0  0  0  0  0  0
    9.6860   -0.4450   21.5290 H   0  0  0  0  0  0  0  0  0  0  0  0
    6.5930    0.2660   24.4220 H   0  0  0  0  0  0  0  0  0  0  0  0
    5.5600   -1.1270   24.0290 H   0  0  0  0  0  0  0  0  0  0  0  0
    6.5040   -2.8560   26.9530 H   0  0  0  0  0  0  0  0  0  0  0  0
    5.1570   -2.4010   25.8510 H   0  0  0  0  0  0  0  0  0  0  0  0
    4.6660   -0.0780   27.1030 O   0  0  0  0  0  0  0  0  0  0  0  0
    4.1070    2.6020   28.8730 H   0  0  0  0  0  0  0  0  0  0  0  0
    2.7100    1.5230   28.8840 H   0  0  0  0  0  0  0  0  0  0  0  0
    3.3370    2.1320   27.3370 H   0  0  0  0  0  0  0  0  0  0  0  0
  1  2  1  0  0  0  0
  1 65  1  0  0  0  0
  1 66  1  0  0  0  0
  1 67  1  0  0  0  0
  2  3  2  0  0  0  0
  2 64  1  0  0  0  0
  3  4  1  0  0  0  0
  4  5  2  0  0  0  0
  5  6  1  0  0  0  0
  5 64  1  0  0  0  0
  6  7  1  0  0  0  0
  6 62  1  0  0  0  0
  6 63  1  0  0  0  0
  7  8  1  0  0  0  0
  7 55  1  0  0  0  0
  8  9  1  0  0  0  0
  8 60  1  0  0  0  0
  8 61  1  0  0  0  0
  9 10  1  6  0  0  0
  9 30  1  0  0  0  0
  9 48  1  0  0  0  0
 10 11  2  0  0  0  0
 10 12  1  0  0  0  0
 12 13  1  0  0  0  0
 12 29  1  0  0  0  0
 13 14  2  0  0  0  0
 13 22  1  0  0  0  0
 14 15  1  0  0  0  0
 14 28  1  0  0  0  0
 15 16  2  0  0  0  0
 16 17  1  0  0  0  0
 16 27  1  0  0  0  0
 17 18  2  0  0  0  0
 17 22  1  0  0  0  0
 18 19  1  0  0  0  0
 18 26  1  0  0  0  0
 19 20  2  0  0  0  0
 19 25  1  0  0  0  0
 20 21  1  0  0  0  0
 20 24  1  0  0  0  0
 21 22  2  0  0  0  0
 21 23  1  0  0  0  0
 29 30  1  0  0  0  0
 29 46  1  0  0  0  0
 29 47  1  0  0  0  0
 30 31  1  0  0  0  0
 30 45  1  6  0  0  0
 31 32  1  0  0  0  0
 31 43  1  0  0  0  0
 31 44  1  0  0  0  0
 32 33  1  0  0  0  0
 32 42  1  0  0  0  0
 33 34  2  0  0  0  0
 33 38  1  0  0  0  0
 34 35  1  0  0  0  0
 34 41  1  0  0  0  0
 35 36  2  0  0  0  0
 35 40  1  0  0  0  0
 36 37  1  0  0  0  0
 37 38  2  0  0  0  0
 37 39  1  0  0  0  0
 48 49  2  0  0  0  0
 48 54  1  0  0  0  0
 49 50  1  0  0  0  0
 49 59  1  0  0  0  0
 50 51  1  0  0  0  0
 50 52  2  0  0  0  0
 52 53  1  0  0  0  0
 52 58  1  0  0  0  0
 53 54  2  0  0  0  0
 53 57  1  0  0  0  0
 54 55  1  0  0  0  0
 55 56  2  0  0  0  0
M  END
>  <MODEL>
       1

$$$$
best_conformers_51.pdb
 OpenBabel02042510453D

 67 73  0  0  1  0  0  0  0  0999 V2000
    5.6500    0.7480   30.4240 C   0  0  0  0  0  0  0  0  0  0  0  0
    5.3230    0.2490   29.0620 C   0  0  0  0  0  0  0  0  0  0  0  0
    4.3890    0.6440   28.2640 N   0  0  0  0  0  0  0  0  0  0  0  0
    4.4810   -0.1480   27.1260 N   0  0  0  0  0  0  0  0  0  0  0  0
    5.4670   -0.9530   27.3230 C   0  0  0  0  0  0  0  0  0  0  0  0
    5.9660   -2.0090   26.3920 C   0  0  0  0  0  0  0  0  0  0  0  0
    6.9570   -1.4910   25.4690 N   0  0  0  0  0  0  0  0  0  0  0  0
    6.5540   -0.7860   24.2610 C   0  0  0  0  0  0  0  0  0  0  0  0
    7.4840   -1.1000   23.0580 C   0  0  2  0  0  0  0  0  0  0  0  0
    7.0920   -0.1230   21.9490 C   0  0  0  0  0  0  0  0  0  0  0  0
    7.2810    1.0790   21.9280 O   0  0  0  0  0  0  0  0  0  0  0  0
    6.4160   -0.8160   20.9740 N   0  0  0  0  0  0  0  0  0  0  0  0
    5.8260   -0.1720   19.8710 C   0  0  0  0  0  0  0  0  0  0  0  0
    6.2720   -0.4670   18.6080 C   0  0  0  0  0  0  0  0  0  0  0  0
    5.8050    0.1040   17.4730 N   0  0  0  0  0  0  0  0  0  0  0  0
    4.8350    0.9790   17.6130 C   0  0  0  0  0  0  0  0  0  0  0  0
    4.2620    1.3480   18.8640 C   0  0  0  0  0  0  0  0  0  0  0  0
    3.2090    2.2950   18.9440 C   0  0  0  0  0  0  0  0  0  0  0  0
    2.6500    2.6110   20.1510 C   0  0  0  0  0  0  0  0  0  0  0  0
    3.1150    1.9980   21.3370 C   0  0  0  0  0  0  0  0  0  0  0  0
    4.1400    1.0890   21.2900 C   0  0  0  0  0  0  0  0  0  0  0  0
    4.7530    0.7530   20.0450 C   0  0  0  0  0  0  0  0  0  0  0  0
    4.4920    0.6380   22.2140 H   0  0  0  0  0  0  0  0  0  0  0  0
    2.6560    2.2540   22.2880 H   0  0  0  0  0  0  0  0  0  0  0  0
    1.8430    3.3340   20.2050 H   0  0  0  0  0  0  0  0  0  0  0  0
    2.8610    2.7550   18.0230 H   0  0  0  0  0  0  0  0  0  0  0  0
    4.4420    1.4390   16.7060 H   0  0  0  0  0  0  0  0  0  0  0  0
    7.0780   -1.1900   18.4910 H   0  0  0  0  0  0  0  0  0  0  0  0
    6.2150   -2.2200   21.2630 C   0  0  0  0  0  0  0  0  0  0  0  0
    7.2360   -2.4870   22.3710 C   0  0  2  0  0  0  0  0  0  0  0  0
    6.8110   -3.6090   23.3080 C   0  0  0  0  0  0  0  0  0  0  0  0
    6.6580   -4.8530   22.5770 N   0  0  0  0  0  0  0  0  0  0  0  0
    6.4720   -6.0140   23.2720 C   0  0  0  0  0  0  0  0  0  0  0  0
    6.7520   -7.2510   22.6630 C   0  0  0  0  0  0  0  0  0  0  0  0
    6.5750   -8.3780   23.4250 C   0  0  0  0  0  0  0  0  0  0  0  0
    6.0990   -8.3440   24.6830 N   0  0  0  0  0  0  0  0  0  0  0  0
    5.8240   -7.1280   25.1370 C   0  0  0  0  0  0  0  0  0  0  0  0
    5.9940   -5.9510   24.5210 N   0  0  0  0  0  0  0  0  0  0  0  0
    5.3800   -7.0850   26.1350 H   0  0  0  0  0  0  0  0  0  0  0  0
    6.8450   -9.3620   23.0320 H   0  0  0  0  0  0  0  0  0  0  0  0
    7.1000   -7.2970   21.6390 H   0  0  0  0  0  0  0  0  0  0  0  0
    7.2210   -4.9330   21.7420 H   0  0  0  0  0  0  0  0  0  0  0  0
    5.8480   -3.3840   23.7770 H   0  0  0  0  0  0  0  0  0  0  0  0
    7.5550   -3.7130   24.1090 H   0  0  0  0  0  0  0  0  0  0  0  0
    8.1880   -2.7690   21.8950 H   0  0  0  0  0  0  0  0  0  0  0  0
    5.1840   -2.4160   21.5980 H   0  0  0  0  0  0  0  0  0  0  0  0
    6.3770   -2.8090   20.3590 H   0  0  0  0  0  0  0  0  0  0  0  0
    8.9120   -0.9140   23.5180 C   0  0  0  0  0  0  0  0  0  0  0  0
    9.9270   -0.5920   22.6110 C   0  0  0  0  0  0  0  0  0  0  0  0
   11.2320   -0.4650   23.0570 C   0  0  0  0  0  0  0  0  0  0  0  0
   12.4930   -0.0910   21.9220 Cl  0  0  0  0  0  0  0  0  0  0  0  0
   11.5740   -0.6520   24.3970 C   0  0  0  0  0  0  0  0  0  0  0  0
   10.5760   -0.9910   25.2870 C   0  0  0  0  0  0  0  0  0  0  0  0
    9.2640   -1.1340   24.8510 C   0  0  0  0  0  0  0  0  0  0  0  0
    8.2650   -1.6220   25.8380 C   0  0  0  0  0  0  0  0  0  0  0  0
    8.5990   -2.1500   26.8860 O   0  0  0  0  0  0  0  0  0  0  0  0
   10.7770   -1.1670   26.3370 H   0  0  0  0  0  0  0  0  0  0  0  0
   12.6040   -0.5530   24.7220 H   0  0  0  0  0  0  0  0  0  0  0  0
    9.6920   -0.4340   21.5640 H   0  0  0  0  0  0  0  0  0  0  0  0
    6.5630    0.3040   24.4120 H   0  0  0  0  0  0  0  0  0  0  0  0
    5.5220   -1.0640   24.0130 H   0  0  0  0  0  0  0  0  0  0  0  0
    6.4350   -2.8220   26.9520 H   0  0  0  0  0  0  0  0  0  0  0  0
    5.1140   -2.3980   25.8240 H   0  0  0  0  0  0  0  0  0  0  0  0
    6.0670   -0.7540   28.5220 O   0  0  0  0  0  0  0  0  0  0  0  0
    4.7390    1.1030   30.9110 H   0  0  0  0  0  0  0  0  0  0  0  0
    6.3450    1.5920   30.3570 H   0  0  0  0  0  0  0  0  0  0  0  0
    6.1090   -0.0370   31.0290 H   0  0  0  0  0  0  0  0  0  0  0  0
  1  2  1  0  0  0  0
  1 65  1  0  0  0  0
  1 66  1  0  0  0  0
  1 67  1  0  0  0  0
  2  3  2  0  0  0  0
  2 64  1  0  0  0  0
  3  4  1  0  0  0  0
  4  5  2  0  0  0  0
  5  6  1  0  0  0  0
  5 64  1  0  0  0  0
  6  7  1  0  0  0  0
  6 62  1  0  0  0  0
  6 63  1  0  0  0  0
  7  8  1  0  0  0  0
  7 55  1  0  0  0  0
  8  9  1  0  0  0  0
  8 60  1  0  0  0  0
  8 61  1  0  0  0  0
  9 10  1  6  0  0  0
  9 30  1  0  0  0  0
  9 48  1  0  0  0  0
 10 11  2  0  0  0  0
 10 12  1  0  0  0  0
 12 13  1  0  0  0  0
 12 29  1  0  0  0  0
 13 14  2  0  0  0  0
 13 22  1  0  0  0  0
 14 15  1  0  0  0  0
 14 28  1  0  0  0  0
 15 16  2  0  0  0  0
 16 17  1  0  0  0  0
 16 27  1  0  0  0  0
 17 18  2  0  0  0  0
 17 22  1  0  0  0  0
 18 19  1  0  0  0  0
 18 26  1  0  0  0  0
 19 20  2  0  0  0  0
 19 25  1  0  0  0  0
 20 21  1  0  0  0  0
 20 24  1  0  0  0  0
 21 22  2  0  0  0  0
 21 23  1  0  0  0  0
 29 30  1  0  0  0  0
 29 46  1  0  0  0  0
 29 47  1  0  0  0  0
 30 31  1  0  0  0  0
 30 45  1  6  0  0  0
 31 32  1  0  0  0  0
 31 43  1  0  0  0  0
 31 44  1  0  0  0  0
 32 33  1  0  0  0  0
 32 42  1  0  0  0  0
 33 34  2  0  0  0  0
 33 38  1  0  0  0  0
 34 35  1  0  0  0  0
 34 41  1  0  0  0  0
 35 36  2  0  0  0  0
 35 40  1  0  0  0  0
 36 37  1  0  0  0  0
 37 38  2  0  0  0  0
 37 39  1  0  0  0  0
 48 49  2  0  0  0  0
 48 54  1  0  0  0  0
 49 50  1  0  0  0  0
 49 59  1  0  0  0  0
 50 51  1  0  0  0  0
 50 52  2  0  0  0  0
 52 53  1  0  0  0  0
 52 58  1  0  0  0  0
 53 54  2  0  0  0  0
 53 57  1  0  0  0  0
 54 55  1  0  0  0  0
 55 56  2  0  0  0  0
M  END
>  <MODEL>
       2

$$$$
best_conformers_51.pdb
 OpenBabel02042510453D

 67 73  0  0  1  0  0  0  0  0999 V2000
    4.8550   -8.4350   26.4740 C   0  0  0  0  0  0  0  0  0  0  0  0
    5.2860   -7.7720   25.2050 C   0  0  0  0  0  0  0  0  0  0  0  0
    6.2510   -8.0220   24.3840 N   0  0  0  0  0  0  0  0  0  0  0  0
    6.1440   -7.0850   23.3500 N   0  0  0  0  0  0  0  0  0  0  0  0
    5.1100   -6.3680   23.6300 C   0  0  0  0  0  0  0  0  0  0  0  0
    4.5420   -5.1480   22.9800 C   0  0  0  0  0  0  0  0  0  0  0  0
    5.1130   -3.9710   23.5950 N   0  0  0  0  0  0  0  0  0  0  0  0
    6.4700   -3.6030   23.2390 C   0  0  0  0  0  0  0  0  0  0  0  0
    6.5400   -2.0930   22.9650 C   0  0  2  0  0  0  0  0  0  0  0  0
    5.7170   -1.7780   21.7030 C   0  0  0  0  0  0  0  0  0  0  0  0
    4.6310   -2.2280   21.3980 O   0  0  0  0  0  0  0  0  0  0  0  0
    6.4200   -0.8770   20.9430 N   0  0  0  0  0  0  0  0  0  0  0  0
    5.8270   -0.2010   19.8540 C   0  0  0  0  0  0  0  0  0  0  0  0
    6.2880   -0.4490   18.5880 C   0  0  0  0  0  0  0  0  0  0  0  0
    5.8060    0.1250   17.4590 N   0  0  0  0  0  0  0  0  0  0  0  0
    4.8240    0.9830   17.6120 C   0  0  0  0  0  0  0  0  0  0  0  0
    4.2580    1.3400   18.8700 C   0  0  0  0  0  0  0  0  0  0  0  0
    3.2130    2.2960   18.9560 C   0  0  0  0  0  0  0  0  0  0  0  0
    2.6980    2.6480   20.1700 C   0  0  0  0  0  0  0  0  0  0  0  0
    3.2060    2.0670   21.3550 C   0  0  0  0  0  0  0  0  0  0  0  0
    4.2180    1.1400   21.3060 C   0  0  0  0  0  0  0  0  0  0  0  0
    4.7650    0.7420   20.0450 C   0  0  0  0  0  0  0  0  0  0  0  0
    4.6020    0.7180   22.2380 H   0  0  0  0  0  0  0  0  0  0  0  0
    2.7910    2.3730   22.3120 H   0  0  0  0  0  0  0  0  0  0  0  0
    1.9040    3.3870   20.2330 H   0  0  0  0  0  0  0  0  0  0  0  0
    2.8480    2.7440   18.0350 H   0  0  0  0  0  0  0  0  0  0  0  0
    4.4250    1.4520   16.7120 H   0  0  0  0  0  0  0  0  0  0  0  0
    7.0880   -1.1750   18.4540 H   0  0  0  0  0  0  0  0  0  0  0  0
    7.7610   -0.6080   21.4160 C   0  0  0  0  0  0  0  0  0  0  0  0
    7.9660   -1.5720   22.6040 C   0  0  2  0  0  0  0  0  0  0  0  0
    9.0360   -2.6330   22.2410 C   0  0  0  0  0  0  0  0  0  0  0  0
    9.5260   -3.4270   23.3480 N   0  0  0  0  0  0  0  0  0  0  0  0
   10.2840   -2.9650   24.3790 C   0  0  0  0  0  0  0  0  0  0  0  0
   10.8950   -1.6960   24.3770 C   0  0  0  0  0  0  0  0  0  0  0  0
   11.5970   -1.3520   25.5180 C   0  0  0  0  0  0  0  0  0  0  0  0
   11.7050   -2.1510   26.5870 N   0  0  0  0  0  0  0  0  0  0  0  0
   11.1100   -3.3320   26.4630 C   0  0  0  0  0  0  0  0  0  0  0  0
   10.4320   -3.7980   25.4200 N   0  0  0  0  0  0  0  0  0  0  0  0
   11.1770   -4.0050   27.3190 H   0  0  0  0  0  0  0  0  0  0  0  0
   12.0940   -0.3830   25.5860 H   0  0  0  0  0  0  0  0  0  0  0  0
   10.8210   -1.0220   23.5280 H   0  0  0  0  0  0  0  0  0  0  0  0
    9.2900   -4.4060   23.4120 H   0  0  0  0  0  0  0  0  0  0  0  0
    9.8940   -2.1190   21.7890 H   0  0  0  0  0  0  0  0  0  0  0  0
    8.6460   -3.3100   21.4730 H   0  0  0  0  0  0  0  0  0  0  0  0
    8.3580   -1.0410   23.4770 H   0  0  0  0  0  0  0  0  0  0  0  0
    8.4890   -0.7810   20.6150 H   0  0  0  0  0  0  0  0  0  0  0  0
    7.8560    0.4440   21.7130 H   0  0  0  0  0  0  0  0  0  0  0  0
    5.9220   -1.3840   24.1760 C   0  0  0  0  0  0  0  0  0  0  0  0
    6.2280   -0.0490   24.4680 C   0  0  0  0  0  0  0  0  0  0  0  0
    5.6570    0.5770   25.5650 C   0  0  0  0  0  0  0  0  0  0  0  0
    6.0700    2.2340   25.9090 Cl  0  0  0  0  0  0  0  0  0  0  0  0
    4.7600   -0.0850   26.4030 C   0  0  0  0  0  0  0  0  0  0  0  0
    4.4240   -1.3890   26.1010 C   0  0  0  0  0  0  0  0  0  0  0  0
    4.9800   -2.0240   24.9920 C   0  0  0  0  0  0  0  0  0  0  0  0
    4.4810   -3.3920   24.6610 C   0  0  0  0  0  0  0  0  0  0  0  0
    3.5560   -3.9200   25.2590 O   0  0  0  0  0  0  0  0  0  0  0  0
    3.7130   -1.9490   26.7000 H   0  0  0  0  0  0  0  0  0  0  0  0
    4.3250    0.4250   27.2550 H   0  0  0  0  0  0  0  0  0  0  0  0
    6.9160    0.5210   23.8500 H   0  0  0  0  0  0  0  0  0  0  0  0
    7.1660   -3.8570   24.0490 H   0  0  0  0  0  0  0  0  0  0  0  0
    6.7540   -4.1640   22.3460 H   0  0  0  0  0  0  0  0  0  0  0  0
    4.7620   -5.1170   21.9090 H   0  0  0  0  0  0  0  0  0  0  0  0
    3.4570   -5.1070   23.1120 H   0  0  0  0  0  0  0  0  0  0  0  0
    4.5220   -6.7390   24.7870 O   0  0  0  0  0  0  0  0  0  0  0  0
    4.3570   -9.3900   26.2700 H   0  0  0  0  0  0  0  0  0  0  0  0
    4.1420   -7.7930   26.9940 H   0  0  0  0  0  0  0  0  0  0  0  0
    5.7170   -8.5950   27.1330 H   0  0  0  0  0  0  0  0  0  0  0  0
  1  2  1  0  0  0  0
  1 65  1  0  0  0  0
  1 66  1  0  0  0  0
  1 67  1  0  0  0  0
  2  3  2  0  0  0  0
  2 64  1  0  0  0  0
  3  4  1  0  0  0  0
  4  5  2  0  0  0  0
  5  6  1  0  0  0  0
  5 64  1  0  0  0  0
  6  7  1  0  0  0  0
  6 62  1  0  0  0  0
  6 63  1  0  0  0  0
  7  8  1  0  0  0  0
  7 55  1  0  0  0  0
  8  9  1  0  0  0  0
  8 60  1  0  0  0  0
  8 61  1  0  0  0  0
  9 10  1  6  0  0  0
  9 30  1  0  0  0  0
  9 48  1  0  0  0  0
 10 11  2  0  0  0  0
 10 12  1  0  0  0  0
 12 13  1  0  0  0  0
 12 29  1  0  0  0  0
 13 14  2  0  0  0  0
 13 22  1  0  0  0  0
 14 15  1  0  0  0  0
 14 28  1  0  0  0  0
 15 16  2  0  0  0  0
 16 17  1  0  0  0  0
 16 27  1  0  0  0  0
 17 18  2  0  0  0  0
 17 22  1  0  0  0  0
 18 19  1  0  0  0  0
 18 26  1  0  0  0  0
 19 20  2  0  0  0  0
 19 25  1  0  0  0  0
 20 21  1  0  0  0  0
 20 24  1  0  0  0  0
 21 22  2  0  0  0  0
 21 23  1  0  0  0  0
 29 30  1  0  0  0  0
 29 46  1  0  0  0  0
 29 47  1  0  0  0  0
 30 31  1  0  0  0  0
 30 45  1  1  0  0  0
 31 32  1  0  0  0  0
 31 43  1  0  0  0  0
 31 44  1  0  0  0  0
 32 33  1  0  0  0  0
 32 42  1  0  0  0  0
 33 34  2  0  0  0  0
 33 38  1  0  0  0  0
 34 35  1  0  0  0  0
 34 41  1  0  0  0  0
 35 36  2  0  0  0  0
 35 40  1  0  0  0  0
 36 37  1  0  0  0  0
 37 38  2  0  0  0  0
 37 39  1  0  0  0  0
 48 49  2  0  0  0  0
 48 54  1  0  0  0  0
 49 50  1  0  0  0  0
 49 59  1  0  0  0  0
 50 51  1  0  0  0  0
 50 52  2  0  0  0  0
 52 53  1  0  0  0  0
 52 58  1  0  0  0  0
 53 54  2  0  0  0  0
 53 57  1  0  0  0  0
 54 55  1  0  0  0  0
 55 56  2  0  0  0  0
M  END
>  <MODEL>
       3

$$$$
