best_conformers_4.pdb
 OpenBabel02042510453D

 41 44  0  0  1  0  0  0  0  0999 V2000
    9.8650    1.0140   23.8070 C   0  0  0  0  0  0  0  0  0  0  0  0
    9.8640    0.2330   22.4850 C   0  0  1  0  0  0  0  0  0  0  0  0
   11.0880   -0.6370   22.3650 C   0  0  0  0  0  0  0  0  0  0  0  0
   12.4410   -0.1620   22.2480 C   0  0  0  0  0  0  0  0  0  0  0  0
   13.3380   -1.1820   22.3200 C   0  0  0  0  0  0  0  0  0  0  0  0
   12.5700   -2.6840   22.6380 S   0  0  0  0  0  0  0  0  0  0  0  0
   10.9960   -1.9870   22.5040 C   0  0  0  0  0  0  0  0  0  0  0  0
    9.7030   -2.7740   22.4990 C   0  0  0  0  0  0  0  0  0  0  0  0
    8.5830   -1.8520   22.9880 C   0  0  0  0  0  0  0  0  0  0  0  0
    8.6510   -0.5730   22.2870 N   0  0  0  0  0  0  0  0  0  0  0  0
    7.5960    0.0510   21.6630 C   0  0  0  0  0  0  0  0  0  0  0  0
    7.5480    1.2690   21.5660 O   0  0  0  0  0  0  0  0  0  0  0  0
    6.5050   -0.8400   21.0350 C   0  0  0  0  0  0  0  0  0  0  0  0
    5.8240   -0.1770   19.8570 C   0  0  0  0  0  0  0  0  0  0  0  0
    6.2510   -0.4430   18.5810 C   0  0  0  0  0  0  0  0  0  0  0  0
    5.7730    0.1340   17.4460 N   0  0  0  0  0  0  0  0  0  0  0  0
    4.8040    1.0080   17.5930 C   0  0  0  0  0  0  0  0  0  0  0  0
    4.2380    1.3690   18.8430 C   0  0  0  0  0  0  0  0  0  0  0  0
    3.1880    2.3200   18.9440 C   0  0  0  0  0  0  0  0  0  0  0  0
    2.6670    2.6550   20.1630 C   0  0  0  0  0  0  0  0  0  0  0  0
    3.1810    2.0580   21.3360 C   0  0  0  0  0  0  0  0  0  0  0  0
    4.2030    1.1430   21.2640 C   0  0  0  0  0  0  0  0  0  0  0  0
    4.7590    0.7660   20.0130 C   0  0  0  0  0  0  0  0  0  0  0  0
    4.6060    0.7110   22.1740 H   0  0  0  0  0  0  0  0  0  0  0  0
    2.7610    2.3330   22.3010 H   0  0  0  0  0  0  0  0  0  0  0  0
    1.8670    3.3880   20.2360 H   0  0  0  0  0  0  0  0  0  0  0  0
    2.8180    2.7770   18.0270 H   0  0  0  0  0  0  0  0  0  0  0  0
    4.4080    1.4640   16.6840 H   0  0  0  0  0  0  0  0  0  0  0  0
    7.0430   -1.1720   18.4060 H   0  0  0  0  0  0  0  0  0  0  0  0
    6.9830   -1.7660   20.6900 H   0  0  0  0  0  0  0  0  0  0  0  0
    5.7780   -1.1360   21.8060 H   0  0  0  0  0  0  0  0  0  0  0  0
    8.7140   -1.6730   24.0690 H   0  0  0  0  0  0  0  0  0  0  0  0
    7.5910   -2.2930   22.8430 H   0  0  0  0  0  0  0  0  0  0  0  0
    9.4670   -3.1330   21.4800 H   0  0  0  0  0  0  0  0  0  0  0  0
    9.7800   -3.6600   23.1400 H   0  0  0  0  0  0  0  0  0  0  0  0
   14.4050   -1.1660   22.1550 H   0  0  0  0  0  0  0  0  0  0  0  0
   12.7120    0.8930   22.1770 H   0  0  0  0  0  0  0  0  0  0  0  0
    9.8520    0.9580   21.6610 H   0  0  0  0  0  0  0  0  0  0  0  0
    9.0000    1.6820   23.8690 H   0  0  0  0  0  0  0  0  0  0  0  0
    9.8900    0.3440   24.6790 H   0  0  0  0  0  0  0  0  0  0  0  0
   10.7800    1.6160   23.8290 H   0  0  0  0  0  0  0  0  0  0  0  0
  1  2  1  0  0  0  0
  1 39  1  0  0  0  0
  1 40  1  0  0  0  0
  1 41  1  0  0  0  0
  2  3  1  0  0  0  0
  2 10  1  0  0  0  0
  2 38  1  6  0  0  0
  3  4  1  0  0  0  0
  3  7  2  0  0  0  0
  4  5  2  0  0  0  0
  4 37  1  0  0  0  0
  5  6  1  0  0  0  0
  5 36  1  0  0  0  0
  6  7  1  0  0  0  0
  7  8  1  0  0  0  0
  8  9  1  0  0  0  0
  8 34  1  0  0  0  0
  8 35  1  0  0  0  0
  9 10  1  0  0  0  0
  9 32  1  0  0  0  0
  9 33  1  0  0  0  0
 10 11  1  0  0  0  0
 11 12  2  0  0  0  0
 11 13  1  0  0  0  0
 13 14  1  0  0  0  0
 13 30  1  0  0  0  0
 13 31  1  0  0  0  0
 14 15  2  0  0  0  0
 14 23  1  0  0  0  0
 15 16  1  0  0  0  0
 15 29  1  0  0  0  0
 16 17  2  0  0  0  0
 17 18  1  0  0  0  0
 17 28  1  0  0  0  0
 18 19  2  0  0  0  0
 18 23  1  0  0  0  0
 19 20  1  0  0  0  0
 19 27  1  0  0  0  0
 20 21  2  0  0  0  0
 20 26  1  0  0  0  0
 21 22  1  0  0  0  0
 21 25  1  0  0  0  0
 22 23  2  0  0  0  0
 22 24  1  0  0  0  0
M  END
>  <MODEL>
       1

$$$$
best_conformers_4.pdb
 OpenBabel02042510453D

 41 44  0  0  1  0  0  0  0  0999 V2000
    9.4050   -2.8340   22.0710 C   0  0  0  0  0  0  0  0  0  0  0  0
    8.5660   -1.9090   22.9510 C   0  0  1  0  0  0  0  0  0  0  0  0
    9.0190   -1.9800   24.3910 C   0  0  0  0  0  0  0  0  0  0  0  0
    8.8860   -3.1220   25.2420 C   0  0  0  0  0  0  0  0  0  0  0  0
    9.4150   -2.9140   26.4800 C   0  0  0  0  0  0  0  0  0  0  0  0
   10.1140   -1.3420   26.6210 S   0  0  0  0  0  0  0  0  0  0  0  0
    9.6430   -0.9410   25.0060 C   0  0  0  0  0  0  0  0  0  0  0  0
    9.8520    0.3890   24.3580 C   0  0  0  0  0  0  0  0  0  0  0  0
    9.7300    0.2700   22.8460 C   0  0  0  0  0  0  0  0  0  0  0  0
    8.5640   -0.5270   22.4670 N   0  0  0  0  0  0  0  0  0  0  0  0
    7.5570    0.0570   21.7220 C   0  0  0  0  0  0  0  0  0  0  0  0
    7.4990    1.2650   21.5800 O   0  0  0  0  0  0  0  0  0  0  0  0
    6.5010   -0.8480   21.0300 C   0  0  0  0  0  0  0  0  0  0  0  0
    5.8120   -0.1780   19.8560 C   0  0  0  0  0  0  0  0  0  0  0  0
    6.2340   -0.4380   18.5760 C   0  0  0  0  0  0  0  0  0  0  0  0
    5.7570    0.1380   17.4390 N   0  0  0  0  0  0  0  0  0  0  0  0
    4.7860    1.0100   17.5820 C   0  0  0  0  0  0  0  0  0  0  0  0
    4.2310    1.3790   18.8390 C   0  0  0  0  0  0  0  0  0  0  0  0
    3.1790    2.3300   18.9400 C   0  0  0  0  0  0  0  0  0  0  0  0
    2.6600    2.6650   20.1620 C   0  0  0  0  0  0  0  0  0  0  0  0
    3.1740    2.0620   21.3320 C   0  0  0  0  0  0  0  0  0  0  0  0
    4.1930    1.1430   21.2620 C   0  0  0  0  0  0  0  0  0  0  0  0
    4.7550    0.7770   20.0100 C   0  0  0  0  0  0  0  0  0  0  0  0
    4.5950    0.7070   22.1700 H   0  0  0  0  0  0  0  0  0  0  0  0
    2.7640    2.3390   22.2970 H   0  0  0  0  0  0  0  0  0  0  0  0
    1.8590    3.3950   20.2410 H   0  0  0  0  0  0  0  0  0  0  0  0
    2.8000    2.7910   18.0290 H   0  0  0  0  0  0  0  0  0  0  0  0
    4.3980    1.4880   16.6790 H   0  0  0  0  0  0  0  0  0  0  0  0
    7.0230   -1.1690   18.4010 H   0  0  0  0  0  0  0  0  0  0  0  0
    6.9750   -1.7750   20.6780 H   0  0  0  0  0  0  0  0  0  0  0  0
    5.7590   -1.1540   21.7770 H   0  0  0  0  0  0  0  0  0  0  0  0
    9.6550    1.2560   22.3870 H   0  0  0  0  0  0  0  0  0  0  0  0
   10.6490   -0.1920   22.4620 H   0  0  0  0  0  0  0  0  0  0  0  0
   10.8370    0.7950   24.6010 H   0  0  0  0  0  0  0  0  0  0  0  0
    9.1010    1.0950   24.7310 H   0  0  0  0  0  0  0  0  0  0  0  0
    9.4390   -3.5950   27.3210 H   0  0  0  0  0  0  0  0  0  0  0  0
    8.4170   -4.0550   24.9400 H   0  0  0  0  0  0  0  0  0  0  0  0
    7.5330   -2.2680   22.9390 H   0  0  0  0  0  0  0  0  0  0  0  0
   10.4650   -2.5890   22.1650 H   0  0  0  0  0  0  0  0  0  0  0  0
    9.2820   -3.8710   22.3890 H   0  0  0  0  0  0  0  0  0  0  0  0
    9.1220   -2.7500   21.0200 H   0  0  0  0  0  0  0  0  0  0  0  0
  1  2  1  0  0  0  0
  1 39  1  0  0  0  0
  1 40  1  0  0  0  0
  1 41  1  0  0  0  0
  2  3  1  0  0  0  0
  2 10  1  0  0  0  0
  2 38  1  6  0  0  0
  3  4  1  0  0  0  0
  3  7  2  0  0  0  0
  4  5  2  0  0  0  0
  4 37  1  0  0  0  0
  5  6  1  0  0  0  0
  5 36  1  0  0  0  0
  6  7  1  0  0  0  0
  7  8  1  0  0  0  0
  8  9  1  0  0  0  0
  8 34  1  0  0  0  0
  8 35  1  0  0  0  0
  9 10  1  0  0  0  0
  9 32  1  0  0  0  0
  9 33  1  0  0  0  0
 10 11  1  0  0  0  0
 11 12  2  0  0  0  0
 11 13  1  0  0  0  0
 13 14  1  0  0  0  0
 13 30  1  0  0  0  0
 13 31  1  0  0  0  0
 14 15  2  0  0  0  0
 14 23  1  0  0  0  0
 15 16  1  0  0  0  0
 15 29  1  0  0  0  0
 16 17  2  0  0  0  0
 17 18  1  0  0  0  0
 17 28  1  0  0  0  0
 18 19  2  0  0  0  0
 18 23  1  0  0  0  0
 19 20  1  0  0  0  0
 19 27  1  0  0  0  0
 20 21  2  0  0  0  0
 20 26  1  0  0  0  0
 21 22  1  0  0  0  0
 21 25  1  0  0  0  0
 22 23  2  0  0  0  0
 22 24  1  0  0  0  0
M  END
>  <MODEL>
       2

$$$$
best_conformers_4.pdb
 OpenBabel02042510453D

 41 44  0  0  1  0  0  0  0  0999 V2000
    8.4340    1.4140   24.5270 C   0  0  0  0  0  0  0  0  0  0  0  0
    9.1480    0.4900   23.5350 C   0  0  1  0  0  0  0  0  0  0  0  0
   10.2800   -0.2500   24.2000 C   0  0  0  0  0  0  0  0  0  0  0  0
   11.5860    0.2670   24.4810 C   0  0  0  0  0  0  0  0  0  0  0  0
   12.3420   -0.6020   25.2080 C   0  0  0  0  0  0  0  0  0  0  0  0
   11.4840   -2.0570   25.5710 S   0  0  0  0  0  0  0  0  0  0  0  0
   10.0820   -1.4780   24.7410 C   0  0  0  0  0  0  0  0  0  0  0  0
    8.7520   -2.1480   24.6450 C   0  0  0  0  0  0  0  0  0  0  0  0
    8.0590   -1.8250   23.3130 C   0  0  0  0  0  0  0  0  0  0  0  0
    8.1920   -0.4300   22.8740 N   0  0  0  0  0  0  0  0  0  0  0  0
    7.4620    0.0820   21.8160 C   0  0  0  0  0  0  0  0  0  0  0  0
    7.5850    1.2460   21.4740 O   0  0  0  0  0  0  0  0  0  0  0  0
    6.4860   -0.8440   21.0430 C   0  0  0  0  0  0  0  0  0  0  0  0
    5.8150   -0.1760   19.8580 C   0  0  0  0  0  0  0  0  0  0  0  0
    6.2350   -0.4390   18.5770 C   0  0  0  0  0  0  0  0  0  0  0  0
    5.7550    0.1360   17.4390 N   0  0  0  0  0  0  0  0  0  0  0  0
    4.7860    1.0110   17.5820 C   0  0  0  0  0  0  0  0  0  0  0  0
    4.2310    1.3800   18.8400 C   0  0  0  0  0  0  0  0  0  0  0  0
    3.1800    2.3300   18.9410 C   0  0  0  0  0  0  0  0  0  0  0  0
    2.6600    2.6620   20.1640 C   0  0  0  0  0  0  0  0  0  0  0  0
    3.1740    2.0580   21.3340 C   0  0  0  0  0  0  0  0  0  0  0  0
    4.1930    1.1380   21.2630 C   0  0  0  0  0  0  0  0  0  0  0  0
    4.7560    0.7760   20.0100 C   0  0  0  0  0  0  0  0  0  0  0  0
    4.5880    0.6940   22.1710 H   0  0  0  0  0  0  0  0  0  0  0  0
    2.7610    2.3330   22.2980 H   0  0  0  0  0  0  0  0  0  0  0  0
    1.8590    3.3920   20.2440 H   0  0  0  0  0  0  0  0  0  0  0  0
    2.7990    2.7920   18.0320 H   0  0  0  0  0  0  0  0  0  0  0  0
    4.3970    1.4880   16.6790 H   0  0  0  0  0  0  0  0  0  0  0  0
    7.0240   -1.1700   18.4020 H   0  0  0  0  0  0  0  0  0  0  0  0
    5.7190   -1.2340   21.7250 H   0  0  0  0  0  0  0  0  0  0  0  0
    7.0430   -1.7190   20.6840 H   0  0  0  0  0  0  0  0  0  0  0  0
    6.9980   -2.0730   23.4160 H   0  0  0  0  0  0  0  0  0  0  0  0
    8.4700   -2.4920   22.5450 H   0  0  0  0  0  0  0  0  0  0  0  0
    8.8460   -3.2300   24.7610 H   0  0  0  0  0  0  0  0  0  0  0  0
    8.1280   -1.8190   25.4870 H   0  0  0  0  0  0  0  0  0  0  0  0
   13.3590   -0.4770   25.5520 H   0  0  0  0  0  0  0  0  0  0  0  0
   11.9360    1.2500   24.1760 H   0  0  0  0  0  0  0  0  0  0  0  0
    9.5920    1.1150   22.7530 H   0  0  0  0  0  0  0  0  0  0  0  0
    7.6600    2.0010   24.0340 H   0  0  0  0  0  0  0  0  0  0  0  0
    9.1370    2.1180   24.9730 H   0  0  0  0  0  0  0  0  0  0  0  0
    7.9970    0.8180   25.3320 H   0  0  0  0  0  0  0  0  0  0  0  0
  1  2  1  0  0  0  0
  1 39  1  0  0  0  0
  1 40  1  0  0  0  0
  1 41  1  0  0  0  0
  2  3  1  0  0  0  0
  2 10  1  0  0  0  0
  2 38  1  6  0  0  0
  3  4  1  0  0  0  0
  3  7  2  0  0  0  0
  4  5  2  0  0  0  0
  4 37  1  0  0  0  0
  5  6  1  0  0  0  0
  5 36  1  0  0  0  0
  6  7  1  0  0  0  0
  7  8  1  0  0  0  0
  8  9  1  0  0  0  0
  8 34  1  0  0  0  0
  8 35  1  0  0  0  0
  9 10  1  0  0  0  0
  9 32  1  0  0  0  0
  9 33  1  0  0  0  0
 10 11  1  0  0  0  0
 11 12  2  0  0  0  0
 11 13  1  0  0  0  0
 13 14  1  0  0  0  0
 13 30  1  0  0  0  0
 13 31  1  0  0  0  0
 14 15  2  0  0  0  0
 14 23  1  0  0  0  0
 15 16  1  0  0  0  0
 15 29  1  0  0  0  0
 16 17  2  0  0  0  0
 17 18  1  0  0  0  0
 17 28  1  0  0  0  0
 18 19  2  0  0  0  0
 18 23  1  0  0  0  0
 19 20  1  0  0  0  0
 19 27  1  0  0  0  0
 20 21  2  0  0  0  0
 20 26  1  0  0  0  0
 21 22  1  0  0  0  0
 21 25  1  0  0  0  0
 22 23  2  0  0  0  0
 22 24  1  0  0  0  0
M  END
>  <MODEL>
       3

$$$$
best_conformers_4.pdb
 OpenBabel02042510453D

 41 44  0  0  1  0  0  0  0  0999 V2000
    8.0160    2.1160   24.2870 C   0  0  0  0  0  0  0  0  0  0  0  0
    8.5520    0.7540   23.8070 C   0  0  1  0  0  0  0  0  0  0  0  0
    9.2580   -0.1060   24.8320 C   0  0  0  0  0  0  0  0  0  0  0  0
   10.6520   -0.1530   25.1730 C   0  0  0  0  0  0  0  0  0  0  0  0
   10.9100   -1.0460   26.1740 C   0  0  0  0  0  0  0  0  0  0  0  0
    9.4840   -1.8820   26.6700 S   0  0  0  0  0  0  0  0  0  0  0  0
    8.5070   -0.9550   25.5900 C   0  0  0  0  0  0  0  0  0  0  0  0
    7.0270   -1.0660   25.3960 C   0  0  0  0  0  0  0  0  0  0  0  0
    6.7220   -1.0620   23.8950 C   0  0  0  0  0  0  0  0  0  0  0  0
    7.4700   -0.0240   23.1680 N   0  0  0  0  0  0  0  0  0  0  0  0
    7.3470    0.1460   21.8120 C   0  0  0  0  0  0  0  0  0  0  0  0
    7.9590    1.0120   21.2070 O   0  0  0  0  0  0  0  0  0  0  0  0
    6.4540   -0.8240   21.0420 C   0  0  0  0  0  0  0  0  0  0  0  0
    5.8080   -0.1730   19.8580 C   0  0  0  0  0  0  0  0  0  0  0  0
    6.2610   -0.4310   18.5910 C   0  0  0  0  0  0  0  0  0  0  0  0
    5.7890    0.1360   17.4500 N   0  0  0  0  0  0  0  0  0  0  0  0
    4.8100    0.9980   17.5880 C   0  0  0  0  0  0  0  0  0  0  0  0
    4.2390    1.3680   18.8400 C   0  0  0  0  0  0  0  0  0  0  0  0
    3.1900    2.3180   18.9370 C   0  0  0  0  0  0  0  0  0  0  0  0
    2.6640    2.6520   20.1560 C   0  0  0  0  0  0  0  0  0  0  0  0
    3.1670    2.0500   21.3350 C   0  0  0  0  0  0  0  0  0  0  0  0
    4.1840    1.1320   21.2690 C   0  0  0  0  0  0  0  0  0  0  0  0
    4.7490    0.7670   20.0150 C   0  0  0  0  0  0  0  0  0  0  0  0
    4.5690    0.6920   22.1870 H   0  0  0  0  0  0  0  0  0  0  0  0
    2.7430    2.3250   22.2960 H   0  0  0  0  0  0  0  0  0  0  0  0
    1.8650    3.3820   20.2300 H   0  0  0  0  0  0  0  0  0  0  0  0
    2.8190    2.7800   18.0240 H   0  0  0  0  0  0  0  0  0  0  0  0
    4.4190    1.4560   16.6780 H   0  0  0  0  0  0  0  0  0  0  0  0
    7.0650   -1.1520   18.4540 H   0  0  0  0  0  0  0  0  0  0  0  0
    7.1170   -1.6300   20.6960 H   0  0  0  0  0  0  0  0  0  0  0  0
    5.6980   -1.2720   21.6870 H   0  0  0  0  0  0  0  0  0  0  0  0
    6.9810   -2.0530   23.5010 H   0  0  0  0  0  0  0  0  0  0  0  0
    5.6410   -0.9290   23.7400 H   0  0  0  0  0  0  0  0  0  0  0  0
    6.6070   -1.9680   25.8560 H   0  0  0  0  0  0  0  0  0  0  0  0
    6.5400   -0.2040   25.8720 H   0  0  0  0  0  0  0  0  0  0  0  0
   11.8350   -1.2390   26.7090 H   0  0  0  0  0  0  0  0  0  0  0  0
   11.4030    0.4590   24.6820 H   0  0  0  0  0  0  0  0  0  0  0  0
    9.2580    0.9700   23.0000 H   0  0  0  0  0  0  0  0  0  0  0  0
    7.2020    2.0030   25.0130 H   0  0  0  0  0  0  0  0  0  0  0  0
    7.6190    2.6590   23.4210 H   0  0  0  0  0  0  0  0  0  0  0  0
    8.8210    2.7140   24.7270 H   0  0  0  0  0  0  0  0  0  0  0  0
  1  2  1  0  0  0  0
  1 39  1  0  0  0  0
  1 40  1  0  0  0  0
  1 41  1  0  0  0  0
  2  3  1  0  0  0  0
  2 10  1  0  0  0  0
  2 38  1  6  0  0  0
  3  4  1  0  0  0  0
  3  7  2  0  0  0  0
  4  5  2  0  0  0  0
  4 37  1  0  0  0  0
  5  6  1  0  0  0  0
  5 36  1  0  0  0  0
  6  7  1  0  0  0  0
  7  8  1  0  0  0  0
  8  9  1  0  0  0  0
  8 34  1  0  0  0  0
  8 35  1  0  0  0  0
  9 10  1  0  0  0  0
  9 32  1  0  0  0  0
  9 33  1  0  0  0  0
 10 11  1  0  0  0  0
 11 12  2  0  0  0  0
 11 13  1  0  0  0  0
 13 14  1  0  0  0  0
 13 30  1  0  0  0  0
 13 31  1  0  0  0  0
 14 15  2  0  0  0  0
 14 23  1  0  0  0  0
 15 16  1  0  0  0  0
 15 29  1  0  0  0  0
 16 17  2  0  0  0  0
 17 18  1  0  0  0  0
 17 28  1  0  0  0  0
 18 19  2  0  0  0  0
 18 23  1  0  0  0  0
 19 20  1  0  0  0  0
 19 27  1  0  0  0  0
 20 21  2  0  0  0  0
 20 26  1  0  0  0  0
 21 22  1  0  0  0  0
 21 25  1  0  0  0  0
 22 23  2  0  0  0  0
 22 24  1  0  0  0  0
M  END
>  <MODEL>
       4

$$$$
best_conformers_4.pdb
 OpenBabel02042510453D

 41 44  0  0  1  0  0  0  0  0999 V2000
    7.3680   -4.4030   22.6370 C   0  0  0  0  0  0  0  0  0  0  0  0
    5.9440   -3.9680   23.0140 C   0  0  1  0  0  0  0  0  0  0  0  0
    5.5910   -4.4350   24.4000 C   0  0  0  0  0  0  0  0  0  0  0  0
    5.4730   -5.8070   24.7990 C   0  0  0  0  0  0  0  0  0  0  0  0
    5.1490   -5.9370   26.1140 C   0  0  0  0  0  0  0  0  0  0  0  0
    5.0160   -4.4050   26.9030 S   0  0  0  0  0  0  0  0  0  0  0  0
    5.3620   -3.5720   25.4230 C   0  0  0  0  0  0  0  0  0  0  0  0
    5.3410   -2.0870   25.2540 C   0  0  0  0  0  0  0  0  0  0  0  0
    6.1150   -1.6710   23.9990 C   0  0  0  0  0  0  0  0  0  0  0  0
    5.7590   -2.5110   22.8630 N   0  0  0  0  0  0  0  0  0  0  0  0
    5.5670   -2.0370   21.5640 C   0  0  0  0  0  0  0  0  0  0  0  0
    4.7920   -2.5940   20.8100 O   0  0  0  0  0  0  0  0  0  0  0  0
    6.4290   -0.8600   21.0400 C   0  0  0  0  0  0  0  0  0  0  0  0
    5.8070   -0.1700   19.8490 C   0  0  0  0  0  0  0  0  0  0  0  0
    6.2280   -0.4430   18.5710 C   0  0  0  0  0  0  0  0  0  0  0  0
    5.7520    0.1340   17.4320 N   0  0  0  0  0  0  0  0  0  0  0  0
    4.7870    1.0120   17.5790 C   0  0  0  0  0  0  0  0  0  0  0  0
    4.2270    1.3790   18.8360 C   0  0  0  0  0  0  0  0  0  0  0  0
    3.1730    2.3240   18.9410 C   0  0  0  0  0  0  0  0  0  0  0  0
    2.6420    2.6420   20.1620 C   0  0  0  0  0  0  0  0  0  0  0  0
    3.1450    2.0260   21.3300 C   0  0  0  0  0  0  0  0  0  0  0  0
    4.1680    1.1140   21.2580 C   0  0  0  0  0  0  0  0  0  0  0  0
    4.7430    0.7690   20.0050 C   0  0  0  0  0  0  0  0  0  0  0  0
    4.5410    0.6520   22.1680 H   0  0  0  0  0  0  0  0  0  0  0  0
    2.7200    2.2860   22.2930 H   0  0  0  0  0  0  0  0  0  0  0  0
    1.8360    3.3670   20.2420 H   0  0  0  0  0  0  0  0  0  0  0  0
    2.7970    2.7900   18.0320 H   0  0  0  0  0  0  0  0  0  0  0  0
    4.3970    1.4900   16.6780 H   0  0  0  0  0  0  0  0  0  0  0  0
    7.0150   -1.1790   18.4020 H   0  0  0  0  0  0  0  0  0  0  0  0
    7.3820   -1.3080   20.7210 H   0  0  0  0  0  0  0  0  0  0  0  0
    6.7020   -0.1520   21.8310 H   0  0  0  0  0  0  0  0  0  0  0  0
    7.1940   -1.6990   24.2140 H   0  0  0  0  0  0  0  0  0  0  0  0
    5.8580   -0.6330   23.7710 H   0  0  0  0  0  0  0  0  0  0  0  0
    4.2990   -1.7590   25.1710 H   0  0  0  0  0  0  0  0  0  0  0  0
    5.7400   -1.5760   26.1340 H   0  0  0  0  0  0  0  0  0  0  0  0
    4.9960   -6.8480   26.6750 H   0  0  0  0  0  0  0  0  0  0  0  0
    5.6110   -6.6500   24.1250 H   0  0  0  0  0  0  0  0  0  0  0  0
    5.2500   -4.4460   22.3140 H   0  0  0  0  0  0  0  0  0  0  0  0
    8.0870   -3.9610   23.3320 H   0  0  0  0  0  0  0  0  0  0  0  0
    7.4760   -5.4890   22.6990 H   0  0  0  0  0  0  0  0  0  0  0  0
    7.6240   -4.0940   21.6220 H   0  0  0  0  0  0  0  0  0  0  0  0
  1  2  1  0  0  0  0
  1 39  1  0  0  0  0
  1 40  1  0  0  0  0
  1 41  1  0  0  0  0
  2  3  1  0  0  0  0
  2 10  1  0  0  0  0
  2 38  1  6  0  0  0
  3  4  1  0  0  0  0
  3  7  2  0  0  0  0
  4  5  2  0  0  0  0
  4 37  1  0  0  0  0
  5  6  1  0  0  0  0
  5 36  1  0  0  0  0
  6  7  1  0  0  0  0
  7  8  1  0  0  0  0
  8  9  1  0  0  0  0
  8 34  1  0  0  0  0
  8 35  1  0  0  0  0
  9 10  1  0  0  0  0
  9 32  1  0  0  0  0
  9 33  1  0  0  0  0
 10 11  1  0  0  0  0
 11 12  2  0  0  0  0
 11 13  1  0  0  0  0
 13 14  1  0  0  0  0
 13 30  1  0  0  0  0
 13 31  1  0  0  0  0
 14 15  2  0  0  0  0
 14 23  1  0  0  0  0
 15 16  1  0  0  0  0
 15 29  1  0  0  0  0
 16 17  2  0  0  0  0
 17 18  1  0  0  0  0
 17 28  1  0  0  0  0
 18 19  2  0  0  0  0
 18 23  1  0  0  0  0
 19 20  1  0  0  0  0
 19 27  1  0  0  0  0
 20 21  2  0  0  0  0
 20 26  1  0  0  0  0
 21 22  1  0  0  0  0
 21 25  1  0  0  0  0
 22 23  2  0  0  0  0
 22 24  1  0  0  0  0
M  END
>  <MODEL>
       5

$$$$
best_conformers_4.pdb
 OpenBabel02042510453D

 41 44  0  0  1  0  0  0  0  0999 V2000
    6.4320   -0.8550   24.5900 C   0  0  0  0  0  0  0  0  0  0  0  0
    6.9280   -1.9610   23.6550 C   0  0  1  0  0  0  0  0  0  0  0  0
    7.5450   -3.0640   24.4700 C   0  0  0  0  0  0  0  0  0  0  0  0
    8.8700   -3.1710   25.0040 C   0  0  0  0  0  0  0  0  0  0  0  0
    9.0690   -4.3170   25.7110 C   0  0  0  0  0  0  0  0  0  0  0  0
    7.6550   -5.2960   25.6630 S   0  0  0  0  0  0  0  0  0  0  0  0
    6.7530   -4.0940   24.8500 C   0  0  0  0  0  0  0  0  0  0  0  0
    5.2850   -4.1470   24.5880 C   0  0  0  0  0  0  0  0  0  0  0  0
    5.0710   -3.6920   23.1610 C   0  0  0  0  0  0  0  0  0  0  0  0
    5.8610   -2.5150   22.7970 N   0  0  0  0  0  0  0  0  0  0  0  0
    5.5740   -2.0630   21.5400 C   0  0  0  0  0  0  0  0  0  0  0  0
    4.7200   -2.5900   20.8460 O   0  0  0  0  0  0  0  0  0  0  0  0
    6.4050   -0.8990   21.0260 C   0  0  0  0  0  0  0  0  0  0  0  0
    5.7900   -0.2040   19.8600 C   0  0  0  0  0  0  0  0  0  0  0  0
    6.2400   -0.4670   18.5970 C   0  0  0  0  0  0  0  0  0  0  0  0
    5.7830    0.1110   17.4570 N   0  0  0  0  0  0  0  0  0  0  0  0
    4.8120    0.9840   17.5960 C   0  0  0  0  0  0  0  0  0  0  0  0
    4.2350    1.3490   18.8440 C   0  0  0  0  0  0  0  0  0  0  0  0
    3.1890    2.3030   18.9380 C   0  0  0  0  0  0  0  0  0  0  0  0
    2.6550    2.6280   20.1550 C   0  0  0  0  0  0  0  0  0  0  0  0
    3.1440    2.0200   21.3330 C   0  0  0  0  0  0  0  0  0  0  0  0
    4.1590    1.0970   21.2690 C   0  0  0  0  0  0  0  0  0  0  0  0
    4.7310    0.7370   20.0170 C   0  0  0  0  0  0  0  0  0  0  0  0
    4.5360    0.6470   22.1830 H   0  0  0  0  0  0  0  0  0  0  0  0
    2.7160    2.2910   22.2950 H   0  0  0  0  0  0  0  0  0  0  0  0
    1.8530    3.3590   20.2260 H   0  0  0  0  0  0  0  0  0  0  0  0
    2.8300    2.7730   18.0250 H   0  0  0  0  0  0  0  0  0  0  0  0
    4.4350    1.4490   16.6870 H   0  0  0  0  0  0  0  0  0  0  0  0
    7.0440   -1.1910   18.4590 H   0  0  0  0  0  0  0  0  0  0  0  0
    7.3720   -1.3370   20.7380 H   0  0  0  0  0  0  0  0  0  0  0  0
    6.5900   -0.1930   21.8400 H   0  0  0  0  0  0  0  0  0  0  0  0
    5.3210   -4.5070   22.4770 H   0  0  0  0  0  0  0  0  0  0  0  0
    4.0350   -3.4490   22.9650 H   0  0  0  0  0  0  0  0  0  0  0  0
    4.8950   -5.1610   24.7250 H   0  0  0  0  0  0  0  0  0  0  0  0
    4.7440   -3.4710   25.2700 H   0  0  0  0  0  0  0  0  0  0  0  0
    9.9090   -4.6180   26.3420 H   0  0  0  0  0  0  0  0  0  0  0  0
    9.6500   -2.4360   24.8440 H   0  0  0  0  0  0  0  0  0  0  0  0
    7.6940   -1.5450   22.9910 H   0  0  0  0  0  0  0  0  0  0  0  0
    7.2650   -0.5100   25.2100 H   0  0  0  0  0  0  0  0  0  0  0  0
    6.0070    0.0070   24.0720 H   0  0  0  0  0  0  0  0  0  0  0  0
    5.6650   -1.2650   25.2500 H   0  0  0  0  0  0  0  0  0  0  0  0
  1  2  1  0  0  0  0
  1 39  1  0  0  0  0
  1 40  1  0  0  0  0
  1 41  1  0  0  0  0
  2  3  1  0  0  0  0
  2 10  1  0  0  0  0
  2 38  1  6  0  0  0
  3  4  1  0  0  0  0
  3  7  2  0  0  0  0
  4  5  2  0  0  0  0
  4 37  1  0  0  0  0
  5  6  1  0  0  0  0
  5 36  1  0  0  0  0
  6  7  1  0  0  0  0
  7  8  1  0  0  0  0
  8  9  1  0  0  0  0
  8 34  1  0  0  0  0
  8 35  1  0  0  0  0
  9 10  1  0  0  0  0
  9 32  1  0  0  0  0
  9 33  1  0  0  0  0
 10 11  1  0  0  0  0
 11 12  2  0  0  0  0
 11 13  1  0  0  0  0
 13 14  1  0  0  0  0
 13 30  1  0  0  0  0
 13 31  1  0  0  0  0
 14 15  2  0  0  0  0
 14 23  1  0  0  0  0
 15 16  1  0  0  0  0
 15 29  1  0  0  0  0
 16 17  2  0  0  0  0
 17 18  1  0  0  0  0
 17 28  1  0  0  0  0
 18 19  2  0  0  0  0
 18 23  1  0  0  0  0
 19 20  1  0  0  0  0
 19 27  1  0  0  0  0
 20 21  2  0  0  0  0
 20 26  1  0  0  0  0
 21 22  1  0  0  0  0
 21 25  1  0  0  0  0
 22 23  2  0  0  0  0
 22 24  1  0  0  0  0
M  END
>  <MODEL>
       6

$$$$
