best_conformers_68.pdb
 OpenBabel02042510453D

 57 62  0  0  1  0  0  0  0  0999 V2000
    3.5800    2.0630   28.2190 C   0  0  0  0  0  0  0  0  0  0  0  0
    4.4260    0.8510   28.0070 C   0  0  0  0  0  0  0  0  0  0  0  0
    4.4930    0.0780   26.9650 N   0  0  0  0  0  0  0  0  0  0  0  0
    5.4530   -0.8360   27.3440 C   0  0  0  0  0  0  0  0  0  0  0  0
    5.9090   -1.9400   26.4330 C   0  0  0  0  0  0  0  0  0  0  0  0
    6.9220   -1.5190   25.4790 N   0  0  0  0  0  0  0  0  0  0  0  0
    6.5180   -0.7960   24.2850 C   0  0  0  0  0  0  0  0  0  0  0  0
    7.4640   -1.0760   23.0950 C   0  0  2  0  0  0  0  0  0  0  0  0
    7.0930   -0.0910   21.9740 C   0  0  0  0  0  0  0  0  0  0  0  0
    7.2830    1.1100   21.9590 O   0  0  0  0  0  0  0  0  0  0  0  0
    6.4530   -0.7890   20.9740 N   0  0  0  0  0  0  0  0  0  0  0  0
    5.8470   -0.1510   19.8650 C   0  0  0  0  0  0  0  0  0  0  0  0
    6.2610   -0.4580   18.5920 C   0  0  0  0  0  0  0  0  0  0  0  0
    5.7730    0.1130   17.4650 N   0  0  0  0  0  0  0  0  0  0  0  0
    4.8090    0.9950   17.6110 C   0  0  0  0  0  0  0  0  0  0  0  0
    4.2420    1.3640   18.8630 C   0  0  0  0  0  0  0  0  0  0  0  0
    3.1800    2.3080   18.9540 C   0  0  0  0  0  0  0  0  0  0  0  0
    2.6290    2.6220   20.1680 C   0  0  0  0  0  0  0  0  0  0  0  0
    3.1110    1.9970   21.3410 C   0  0  0  0  0  0  0  0  0  0  0  0
    4.1390    1.0910   21.2760 C   0  0  0  0  0  0  0  0  0  0  0  0
    4.7560    0.7660   20.0330 C   0  0  0  0  0  0  0  0  0  0  0  0
    4.4980    0.6250   22.1870 H   0  0  0  0  0  0  0  0  0  0  0  0
    2.6720    2.2510   22.3030 H   0  0  0  0  0  0  0  0  0  0  0  0
    1.8250    3.3520   20.2360 H   0  0  0  0  0  0  0  0  0  0  0  0
    2.8240    2.7750   18.0400 H   0  0  0  0  0  0  0  0  0  0  0  0
    4.4240    1.4550   16.7030 H   0  0  0  0  0  0  0  0  0  0  0  0
    7.0460   -1.1970   18.4350 H   0  0  0  0  0  0  0  0  0  0  0  0
    6.2850   -2.2050   21.2540 C   0  0  0  0  0  0  0  0  0  0  0  0
    7.2550   -2.4780   22.4160 C   0  0  2  0  0  0  0  0  0  0  0  0
    6.7970   -3.6310   23.3170 C   0  0  0  0  0  0  0  0  0  0  0  0
    7.4800   -3.7750   24.1600 H   0  0  0  0  0  0  0  0  0  0  0  0
    5.8010   -3.4370   23.7350 H   0  0  0  0  0  0  0  0  0  0  0  0
    6.7410   -4.5720   22.7570 H   0  0  0  0  0  0  0  0  0  0  0  0
    8.2390   -2.7350   21.9970 H   0  0  0  0  0  0  0  0  0  0  0  0
    5.2460   -2.4370   21.5350 H   0  0  0  0  0  0  0  0  0  0  0  0
    6.5150   -2.7860   20.3620 H   0  0  0  0  0  0  0  0  0  0  0  0
    8.8920   -0.8830   23.5680 C   0  0  0  0  0  0  0  0  0  0  0  0
    9.9090   -0.6220   22.6440 C   0  0  0  0  0  0  0  0  0  0  0  0
   11.2120   -0.5210   23.0900 C   0  0  0  0  0  0  0  0  0  0  0  0
   12.1810   -0.2440   22.2020 F   0  0  0  0  0  0  0  0  0  0  0  0
   11.5670   -0.6920   24.4220 C   0  0  0  0  0  0  0  0  0  0  0  0
   10.5660   -0.9850   25.3290 C   0  0  0  0  0  0  0  0  0  0  0  0
    9.2410   -1.0870   24.9060 C   0  0  0  0  0  0  0  0  0  0  0  0
    8.2240   -1.5570   25.8900 C   0  0  0  0  0  0  0  0  0  0  0  0
    8.5430   -2.0020   26.9810 O   0  0  0  0  0  0  0  0  0  0  0  0
   10.7800   -1.1780   26.3750 H   0  0  0  0  0  0  0  0  0  0  0  0
   12.6100   -0.6110   24.7060 H   0  0  0  0  0  0  0  0  0  0  0  0
    9.6990   -0.4820   21.5900 H   0  0  0  0  0  0  0  0  0  0  0  0
    5.4900   -1.0990   24.0420 H   0  0  0  0  0  0  0  0  0  0  0  0
    6.5370    0.2900   24.4660 H   0  0  0  0  0  0  0  0  0  0  0  0
    5.0320   -2.2870   25.8780 H   0  0  0  0  0  0  0  0  0  0  0  0
    6.3390   -2.7480   27.0290 H   0  0  0  0  0  0  0  0  0  0  0  0
    5.9210   -0.6560   28.5400 N   0  0  0  0  0  0  0  0  0  0  0  0
    5.2450    0.4710   28.9890 O   0  0  0  0  0  0  0  0  0  0  0  0
    4.0280    2.7110   28.9750 H   0  0  0  0  0  0  0  0  0  0  0  0
    2.5790    1.7700   28.5490 H   0  0  0  0  0  0  0  0  0  0  0  0
    3.4720    2.5990   27.2750 H   0  0  0  0  0  0  0  0  0  0  0  0
  1  2  1  0  0  0  0
  1 55  1  0  0  0  0
  1 56  1  0  0  0  0
  1 57  1  0  0  0  0
  2  3  2  0  0  0  0
  2 54  1  0  0  0  0
  3  4  1  0  0  0  0
  4  5  1  0  0  0  0
  4 53  2  0  0  0  0
  5  6  1  0  0  0  0
  5 51  1  0  0  0  0
  5 52  1  0  0  0  0
  6  7  1  0  0  0  0
  6 44  1  0  0  0  0
  7  8  1  0  0  0  0
  7 49  1  0  0  0  0
  7 50  1  0  0  0  0
  8  9  1  6  0  0  0
  8 29  1  0  0  0  0
  8 37  1  0  0  0  0
  9 10  2  0  0  0  0
  9 11  1  0  0  0  0
 11 12  1  0  0  0  0
 11 28  1  0  0  0  0
 12 13  2  0  0  0  0
 12 21  1  0  0  0  0
 13 14  1  0  0  0  0
 13 27  1  0  0  0  0
 14 15  2  0  0  0  0
 15 16  1  0  0  0  0
 15 26  1  0  0  0  0
 16 17  2  0  0  0  0
 16 21  1  0  0  0  0
 17 18  1  0  0  0  0
 17 25  1  0  0  0  0
 18 19  2  0  0  0  0
 18 24  1  0  0  0  0
 19 20  1  0  0  0  0
 19 23  1  0  0  0  0
 20 21  2  0  0  0  0
 20 22  1  0  0  0  0
 28 29  1  0  0  0  0
 28 35  1  0  0  0  0
 28 36  1  0  0  0  0
 29 30  1  0  0  0  0
 29 34  1  6  0  0  0
 30 31  1  0  0  0  0
 30 32  1  0  0  0  0
 30 33  1  0  0  0  0
 37 38  2  0  0  0  0
 37 43  1  0  0  0  0
 38 39  1  0  0  0  0
 38 48  1  0  0  0  0
 39 40  1  0  0  0  0
 39 41  2  0  0  0  0
 41 42  1  0  0  0  0
 41 47  1  0  0  0  0
 42 43  2  0  0  0  0
 42 46  1  0  0  0  0
 43 44  1  0  0  0  0
 44 45  2  0  0  0  0
 53 54  1  0  0  0  0
M  END
>  <MODEL>
       1

$$$$
best_conformers_68.pdb
 OpenBabel02042510453D

 57 62  0  0  1  0  0  0  0  0999 V2000
    5.5800    1.1930   30.2430 C   0  0  0  0  0  0  0  0  0  0  0  0
    5.3670    0.4200   28.9840 C   0  0  0  0  0  0  0  0  0  0  0  0
    6.0130   -0.6290   28.5800 N   0  0  0  0  0  0  0  0  0  0  0  0
    5.4720   -0.8460   27.3340 C   0  0  0  0  0  0  0  0  0  0  0  0
    5.9330   -1.9450   26.4190 C   0  0  0  0  0  0  0  0  0  0  0  0
    6.9530   -1.5240   25.4720 N   0  0  0  0  0  0  0  0  0  0  0  0
    6.5430   -0.7970   24.2830 C   0  0  0  0  0  0  0  0  0  0  0  0
    7.4810   -1.0750   23.0870 C   0  0  2  0  0  0  0  0  0  0  0  0
    7.0980   -0.0900   21.9710 C   0  0  0  0  0  0  0  0  0  0  0  0
    7.2830    1.1110   21.9590 O   0  0  0  0  0  0  0  0  0  0  0  0
    6.4530   -0.7880   20.9740 N   0  0  0  0  0  0  0  0  0  0  0  0
    5.8470   -0.1510   19.8650 C   0  0  0  0  0  0  0  0  0  0  0  0
    6.2610   -0.4580   18.5910 C   0  0  0  0  0  0  0  0  0  0  0  0
    5.7730    0.1130   17.4650 N   0  0  0  0  0  0  0  0  0  0  0  0
    4.8090    0.9950   17.6100 C   0  0  0  0  0  0  0  0  0  0  0  0
    4.2420    1.3640   18.8640 C   0  0  0  0  0  0  0  0  0  0  0  0
    3.1800    2.3080   18.9540 C   0  0  0  0  0  0  0  0  0  0  0  0
    2.6300    2.6210   20.1680 C   0  0  0  0  0  0  0  0  0  0  0  0
    3.1120    1.9980   21.3410 C   0  0  0  0  0  0  0  0  0  0  0  0
    4.1400    1.0910   21.2770 C   0  0  0  0  0  0  0  0  0  0  0  0
    4.7560    0.7660   20.0330 C   0  0  0  0  0  0  0  0  0  0  0  0
    4.4980    0.6250   22.1880 H   0  0  0  0  0  0  0  0  0  0  0  0
    2.6730    2.2510   22.3030 H   0  0  0  0  0  0  0  0  0  0  0  0
    1.8260    3.3520   20.2360 H   0  0  0  0  0  0  0  0  0  0  0  0
    2.8240    2.7750   18.0400 H   0  0  0  0  0  0  0  0  0  0  0  0
    4.4230    1.4550   16.7030 H   0  0  0  0  0  0  0  0  0  0  0  0
    7.0460   -1.1970   18.4350 H   0  0  0  0  0  0  0  0  0  0  0  0
    6.2920   -2.2050   21.2530 C   0  0  0  0  0  0  0  0  0  0  0  0
    7.2690   -2.4770   22.4080 C   0  0  2  0  0  0  0  0  0  0  0  0
    6.8190   -3.6320   23.3110 C   0  0  0  0  0  0  0  0  0  0  0  0
    6.7610   -4.5720   22.7490 H   0  0  0  0  0  0  0  0  0  0  0  0
    7.5080   -3.7760   24.1490 H   0  0  0  0  0  0  0  0  0  0  0  0
    5.8250   -3.4400   23.7360 H   0  0  0  0  0  0  0  0  0  0  0  0
    8.2520   -2.7320   21.9830 H   0  0  0  0  0  0  0  0  0  0  0  0
    6.5180   -2.7840   20.3570 H   0  0  0  0  0  0  0  0  0  0  0  0
    5.2540   -2.4400   21.5390 H   0  0  0  0  0  0  0  0  0  0  0  0
    8.9110   -0.8790   23.5520 C   0  0  0  0  0  0  0  0  0  0  0  0
    9.9200   -0.6100   22.6210 C   0  0  0  0  0  0  0  0  0  0  0  0
   11.2260   -0.5060   23.0570 C   0  0  0  0  0  0  0  0  0  0  0  0
   12.1860   -0.2240   22.1620 F   0  0  0  0  0  0  0  0  0  0  0  0
   11.5910   -0.6810   24.3870 C   0  0  0  0  0  0  0  0  0  0  0  0
   10.5970   -0.9820   25.3000 C   0  0  0  0  0  0  0  0  0  0  0  0
    9.2700   -1.0900   24.8860 C   0  0  0  0  0  0  0  0  0  0  0  0
    8.2610   -1.5660   25.8750 C   0  0  0  0  0  0  0  0  0  0  0  0
    8.5920   -2.0130   26.9610 O   0  0  0  0  0  0  0  0  0  0  0  0
   10.8200   -1.1770   26.3440 H   0  0  0  0  0  0  0  0  0  0  0  0
   12.6350   -0.5980   24.6640 H   0  0  0  0  0  0  0  0  0  0  0  0
    9.7000   -0.4680   21.5690 H   0  0  0  0  0  0  0  0  0  0  0  0
    5.5140   -1.1010   24.0420 H   0  0  0  0  0  0  0  0  0  0  0  0
    6.5670    0.2890   24.4640 H   0  0  0  0  0  0  0  0  0  0  0  0
    6.3670   -2.7340   27.0360 H   0  0  0  0  0  0  0  0  0  0  0  0
    5.0700   -2.3200   25.8560 H   0  0  0  0  0  0  0  0  0  0  0  0
    4.5290   -0.0120   27.0060 N   0  0  0  0  0  0  0  0  0  0  0  0
    4.4570    0.8380   28.1040 O   0  0  0  0  0  0  0  0  0  0  0  0
    6.4260    1.8780   30.1210 H   0  0  0  0  0  0  0  0  0  0  0  0
    5.8400    0.4990   31.0430 H   0  0  0  0  0  0  0  0  0  0  0  0
    4.6900    1.7690   30.5030 H   0  0  0  0  0  0  0  0  0  0  0  0
  1  2  1  0  0  0  0
  1 55  1  0  0  0  0
  1 56  1  0  0  0  0
  1 57  1  0  0  0  0
  2  3  2  0  0  0  0
  2 54  1  0  0  0  0
  3  4  1  0  0  0  0
  4  5  1  0  0  0  0
  4 53  2  0  0  0  0
  5  6  1  0  0  0  0
  5 51  1  0  0  0  0
  5 52  1  0  0  0  0
  6  7  1  0  0  0  0
  6 44  1  0  0  0  0
  7  8  1  0  0  0  0
  7 49  1  0  0  0  0
  7 50  1  0  0  0  0
  8  9  1  6  0  0  0
  8 29  1  0  0  0  0
  8 37  1  0  0  0  0
  9 10  2  0  0  0  0
  9 11  1  0  0  0  0
 11 12  1  0  0  0  0
 11 28  1  0  0  0  0
 12 13  2  0  0  0  0
 12 21  1  0  0  0  0
 13 14  1  0  0  0  0
 13 27  1  0  0  0  0
 14 15  2  0  0  0  0
 15 16  1  0  0  0  0
 15 26  1  0  0  0  0
 16 17  2  0  0  0  0
 16 21  1  0  0  0  0
 17 18  1  0  0  0  0
 17 25  1  0  0  0  0
 18 19  2  0  0  0  0
 18 24  1  0  0  0  0
 19 20  1  0  0  0  0
 19 23  1  0  0  0  0
 20 21  2  0  0  0  0
 20 22  1  0  0  0  0
 28 29  1  0  0  0  0
 28 35  1  0  0  0  0
 28 36  1  0  0  0  0
 29 30  1  0  0  0  0
 29 34  1  6  0  0  0
 30 31  1  0  0  0  0
 30 32  1  0  0  0  0
 30 33  1  0  0  0  0
 37 38  2  0  0  0  0
 37 43  1  0  0  0  0
 38 39  1  0  0  0  0
 38 48  1  0  0  0  0
 39 40  1  0  0  0  0
 39 41  2  0  0  0  0
 41 42  1  0  0  0  0
 41 47  1  0  0  0  0
 42 43  2  0  0  0  0
 42 46  1  0  0  0  0
 43 44  1  0  0  0  0
 44 45  2  0  0  0  0
 53 54  1  0  0  0  0
M  END
>  <MODEL>
       2

$$$$
best_conformers_68.pdb
 OpenBabel02042510453D

 57 62  0  0  1  0  0  0  0  0999 V2000
    4.1220   -6.3130   26.0900 C   0  0  0  0  0  0  0  0  0  0  0  0
    4.8000   -5.0300   26.4150 C   0  0  0  0  0  0  0  0  0  0  0  0
    4.6700   -3.8110   25.9500 N   0  0  0  0  0  0  0  0  0  0  0  0
    5.6690   -3.1430   26.6250 C   0  0  0  0  0  0  0  0  0  0  0  0
    5.9660   -1.6780   26.4890 C   0  0  0  0  0  0  0  0  0  0  0  0
    6.9800   -1.3600   25.4980 N   0  0  0  0  0  0  0  0  0  0  0  0
    6.5630   -0.7480   24.2510 C   0  0  0  0  0  0  0  0  0  0  0  0
    7.4970   -1.0790   23.0690 C   0  0  2  0  0  0  0  0  0  0  0  0
    7.1040   -0.1070   21.9520 C   0  0  0  0  0  0  0  0  0  0  0  0
    7.2920    1.0930   21.9320 O   0  0  0  0  0  0  0  0  0  0  0  0
    6.4440   -0.7970   20.9670 N   0  0  0  0  0  0  0  0  0  0  0  0
    5.8320   -0.1600   19.8650 C   0  0  0  0  0  0  0  0  0  0  0  0
    6.2590   -0.4610   18.5950 C   0  0  0  0  0  0  0  0  0  0  0  0
    5.7840    0.1140   17.4630 N   0  0  0  0  0  0  0  0  0  0  0  0
    4.8170    0.9910   17.6040 C   0  0  0  0  0  0  0  0  0  0  0  0
    4.2520    1.3610   18.8600 C   0  0  0  0  0  0  0  0  0  0  0  0
    3.1930    2.3030   18.9490 C   0  0  0  0  0  0  0  0  0  0  0  0
    2.6400    2.6150   20.1590 C   0  0  0  0  0  0  0  0  0  0  0  0
    3.1150    1.9990   21.3400 C   0  0  0  0  0  0  0  0  0  0  0  0
    4.1420    1.0930   21.2840 C   0  0  0  0  0  0  0  0  0  0  0  0
    4.7540    0.7660   20.0380 C   0  0  0  0  0  0  0  0  0  0  0  0
    4.4960    0.6300   22.2020 H   0  0  0  0  0  0  0  0  0  0  0  0
    2.6650    2.2500   22.2960 H   0  0  0  0  0  0  0  0  0  0  0  0
    1.8340    3.3410   20.2260 H   0  0  0  0  0  0  0  0  0  0  0  0
    2.8350    2.7680   18.0350 H   0  0  0  0  0  0  0  0  0  0  0  0
    4.4210    1.4540   16.6980 H   0  0  0  0  0  0  0  0  0  0  0  0
    7.0560   -1.1920   18.4610 H   0  0  0  0  0  0  0  0  0  0  0  0
    6.2680   -2.2010   21.2560 C   0  0  0  0  0  0  0  0  0  0  0  0
    7.2560   -2.4760   22.3970 C   0  0  2  0  0  0  0  0  0  0  0  0
    6.8020   -3.6120   23.3070 C   0  0  0  0  0  0  0  0  0  0  0  0
    7.4720   -3.7400   24.1640 H   0  0  0  0  0  0  0  0  0  0  0  0
    5.7960   -3.4320   23.6950 H   0  0  0  0  0  0  0  0  0  0  0  0
    6.7740   -4.5590   22.7630 H   0  0  0  0  0  0  0  0  0  0  0  0
    8.2190   -2.7560   21.9480 H   0  0  0  0  0  0  0  0  0  0  0  0
    6.4660   -2.7900   20.3620 H   0  0  0  0  0  0  0  0  0  0  0  0
    5.2330   -2.4100   21.5570 H   0  0  0  0  0  0  0  0  0  0  0  0
    8.9310   -0.8930   23.5070 C   0  0  0  0  0  0  0  0  0  0  0  0
    9.9310   -0.6170   22.5690 C   0  0  0  0  0  0  0  0  0  0  0  0
   11.2470   -0.5410   22.9860 C   0  0  0  0  0  0  0  0  0  0  0  0
   12.2020   -0.2750   22.0780 F   0  0  0  0  0  0  0  0  0  0  0  0
   11.6250   -0.7410   24.3110 C   0  0  0  0  0  0  0  0  0  0  0  0
   10.6380   -1.0400   25.2330 C   0  0  0  0  0  0  0  0  0  0  0  0
    9.3020   -1.1050   24.8340 C   0  0  0  0  0  0  0  0  0  0  0  0
    8.2920   -1.4930   25.8550 C   0  0  0  0  0  0  0  0  0  0  0  0
    8.6310   -1.9280   26.9400 O   0  0  0  0  0  0  0  0  0  0  0  0
   10.8690   -1.2320   26.2780 H   0  0  0  0  0  0  0  0  0  0  0  0
   12.6730   -0.6780   24.5870 H   0  0  0  0  0  0  0  0  0  0  0  0
    9.6840   -0.4750   21.5220 H   0  0  0  0  0  0  0  0  0  0  0  0
    5.5520   -1.1000   24.0240 H   0  0  0  0  0  0  0  0  0  0  0  0
    6.5080    0.3470   24.3330 H   0  0  0  0  0  0  0  0  0  0  0  0
    5.0620   -1.1290   26.2260 H   0  0  0  0  0  0  0  0  0  0  0  0
    6.3210   -1.3240   27.4570 H   0  0  0  0  0  0  0  0  0  0  0  0
    6.3610   -3.8860   27.4370 N   0  0  0  0  0  0  0  0  0  0  0  0
    5.7840   -5.1290   27.3080 O   0  0  0  0  0  0  0  0  0  0  0  0
    4.4990   -7.0650   26.7870 H   0  0  0  0  0  0  0  0  0  0  0  0
    3.0300   -6.2720   26.1550 H   0  0  0  0  0  0  0  0  0  0  0  0
    4.3930   -6.5990   25.0680 H   0  0  0  0  0  0  0  0  0  0  0  0
  1  2  1  0  0  0  0
  1 55  1  0  0  0  0
  1 56  1  0  0  0  0
  1 57  1  0  0  0  0
  2  3  2  0  0  0  0
  2 54  1  0  0  0  0
  3  4  1  0  0  0  0
  4  5  1  0  0  0  0
  4 53  2  0  0  0  0
  5  6  1  0  0  0  0
  5 51  1  0  0  0  0
  5 52  1  0  0  0  0
  6  7  1  0  0  0  0
  6 44  1  0  0  0  0
  7  8  1  0  0  0  0
  7 49  1  0  0  0  0
  7 50  1  0  0  0  0
  8  9  1  6  0  0  0
  8 29  1  0  0  0  0
  8 37  1  0  0  0  0
  9 10  2  0  0  0  0
  9 11  1  0  0  0  0
 11 12  1  0  0  0  0
 11 28  1  0  0  0  0
 12 13  2  0  0  0  0
 12 21  1  0  0  0  0
 13 14  1  0  0  0  0
 13 27  1  0  0  0  0
 14 15  2  0  0  0  0
 15 16  1  0  0  0  0
 15 26  1  0  0  0  0
 16 17  2  0  0  0  0
 16 21  1  0  0  0  0
 17 18  1  0  0  0  0
 17 25  1  0  0  0  0
 18 19  2  0  0  0  0
 18 24  1  0  0  0  0
 19 20  1  0  0  0  0
 19 23  1  0  0  0  0
 20 21  2  0  0  0  0
 20 22  1  0  0  0  0
 28 29  1  0  0  0  0
 28 35  1  0  0  0  0
 28 36  1  0  0  0  0
 29 30  1  0  0  0  0
 29 34  1  6  0  0  0
 30 31  1  0  0  0  0
 30 32  1  0  0  0  0
 30 33  1  0  0  0  0
 37 38  2  0  0  0  0
 37 43  1  0  0  0  0
 38 39  1  0  0  0  0
 38 48  1  0  0  0  0
 39 40  1  0  0  0  0
 39 41  2  0  0  0  0
 41 42  1  0  0  0  0
 41 47  1  0  0  0  0
 42 43  2  0  0  0  0
 42 46  1  0  0  0  0
 43 44  1  0  0  0  0
 44 45  2  0  0  0  0
 53 54  1  0  0  0  0
M  END
>  <MODEL>
       3

$$$$
