best_conformers_69.pdb
 OpenBabel02042510453D

 64 68  0  0  0  0  0  0  0  0999 V2000
    0.7720    1.1860   27.0940 C   0  0  0  0  0  0  0  0  0  0  0  0
    2.2970    1.2670   27.0500 C   0  0  0  0  0  0  0  0  0  0  0  0
    2.9360    0.4370   25.9580 C   0  0  0  0  0  0  0  0  0  0  0  0
    2.8180    0.7630   24.7900 O   0  0  0  0  0  0  0  0  0  0  0  0
    3.6850   -0.6610   26.3690 N   0  0  0  0  0  0  0  0  0  0  0  0
    3.3250   -1.4420   27.5540 C   0  0  0  0  0  0  0  0  0  0  0  0
    3.3970   -2.9260   27.2240 C   0  0  0  0  0  0  0  0  0  0  0  0
    4.8280   -3.2790   26.8330 C   0  0  0  0  0  0  0  0  0  0  0  0
    5.3890   -2.3130   25.8120 C   0  0  0  0  0  0  0  0  0  0  0  0
    6.4880   -2.6690   25.0340 C   0  0  0  0  0  0  0  0  0  0  0  0
    7.0220   -1.7970   24.0980 C   0  0  0  0  0  0  0  0  0  0  0  0
    6.4700   -0.5240   23.9460 C   0  0  0  0  0  0  0  0  0  0  0  0
    7.0680    0.4360   23.0700 N   0  0  0  0  0  0  0  0  0  0  0  0
    7.8570    1.4820   23.7210 C   0  0  0  0  0  0  0  0  0  0  0  0
    9.1610    0.9520   24.2830 C   0  0  0  0  0  0  0  0  0  0  0  0
    9.2000    0.1850   25.4500 C   0  0  0  0  0  0  0  0  0  0  0  0
   10.3950   -0.3440   25.9140 C   0  0  0  0  0  0  0  0  0  0  0  0
   11.5900   -0.0490   25.2600 C   0  0  0  0  0  0  0  0  0  0  0  0
   11.5480    0.7560   24.1230 C   0  0  0  0  0  0  0  0  0  0  0  0
   13.0240    1.2050   23.3150 Cl  0  0  0  0  0  0  0  0  0  0  0  0
   10.3490    1.2510   23.6270 C   0  0  0  0  0  0  0  0  0  0  0  0
   10.3250    1.7970   22.6840 H   0  0  0  0  0  0  0  0  0  0  0  0
   12.5450   -0.4310   25.6100 H   0  0  0  0  0  0  0  0  0  0  0  0
   10.3740   -0.9860   26.7920 H   0  0  0  0  0  0  0  0  0  0  0  0
    8.2850    0.0160   26.0110 H   0  0  0  0  0  0  0  0  0  0  0  0
    7.2470    1.9300   24.5190 H   0  0  0  0  0  0  0  0  0  0  0  0
    8.0440    2.2420   22.9600 H   0  0  0  0  0  0  0  0  0  0  0  0
    7.3590    0.1770   21.7380 C   0  0  0  0  0  0  0  0  0  0  0  0
    8.2470    0.7490   21.1350 O   0  0  0  0  0  0  0  0  0  0  0  0
    6.4620   -0.8260   21.0220 C   0  0  0  0  0  0  0  0  0  0  0  0
    5.7980   -0.1820   19.8430 C   0  0  0  0  0  0  0  0  0  0  0  0
    6.2540   -0.4210   18.5750 C   0  0  0  0  0  0  0  0  0  0  0  0
    5.7780    0.1520   17.4420 N   0  0  0  0  0  0  0  0  0  0  0  0
    4.7920    1.0100   17.5900 C   0  0  0  0  0  0  0  0  0  0  0  0
    4.2300    1.3560   18.8500 C   0  0  0  0  0  0  0  0  0  0  0  0
    3.1900    2.3010   18.9820 C   0  0  0  0  0  0  0  0  0  0  0  0
    2.7280    2.8760   17.8570 F   0  0  0  0  0  0  0  0  0  0  0  0
    2.6520    2.6400   20.1880 C   0  0  0  0  0  0  0  0  0  0  0  0
    3.1540    2.0210   21.3530 C   0  0  0  0  0  0  0  0  0  0  0  0
    4.1700    1.0990   21.2850 C   0  0  0  0  0  0  0  0  0  0  0  0
    4.7350    0.7480   20.0230 C   0  0  0  0  0  0  0  0  0  0  0  0
    4.5480    0.6570   22.2070 H   0  0  0  0  0  0  0  0  0  0  0  0
    2.7320    2.2750   22.3210 H   0  0  0  0  0  0  0  0  0  0  0  0
    1.8630    3.3820   20.2280 H   0  0  0  0  0  0  0  0  0  0  0  0
    4.3910    1.4790   16.6950 H   0  0  0  0  0  0  0  0  0  0  0  0
    7.0680   -1.1320   18.4350 H   0  0  0  0  0  0  0  0  0  0  0  0
    7.1070   -1.6490   20.6850 H   0  0  0  0  0  0  0  0  0  0  0  0
    5.7120   -1.2260   21.7060 H   0  0  0  0  0  0  0  0  0  0  0  0
    5.3960   -0.1370   24.7250 C   0  0  0  0  0  0  0  0  0  0  0  0
    4.8200   -1.0440   25.6240 C   0  0  0  0  0  0  0  0  0  0  0  0
    5.0090    0.8730   24.6340 H   0  0  0  0  0  0  0  0  0  0  0  0
    7.9200   -2.0490   23.5410 H   0  0  0  0  0  0  0  0  0  0  0  0
    6.9400   -3.6510   25.1670 H   0  0  0  0  0  0  0  0  0  0  0  0
    4.8880   -4.2960   26.4260 H   0  0  0  0  0  0  0  0  0  0  0  0
    5.4650   -3.2660   27.7310 H   0  0  0  0  0  0  0  0  0  0  0  0
    2.7180   -3.1420   26.3920 H   0  0  0  0  0  0  0  0  0  0  0  0
    3.0700   -3.5180   28.0870 H   0  0  0  0  0  0  0  0  0  0  0  0
    4.0050   -1.2120   28.3880 H   0  0  0  0  0  0  0  0  0  0  0  0
    2.3130   -1.1540   27.8520 H   0  0  0  0  0  0  0  0  0  0  0  0
    2.7460    1.0120   28.0130 H   0  0  0  0  0  0  0  0  0  0  0  0
    2.5780    2.2980   26.8110 H   0  0  0  0  0  0  0  0  0  0  0  0
    0.4050    1.9030   27.8360 H   0  0  0  0  0  0  0  0  0  0  0  0
    0.3520    1.4520   26.1210 H   0  0  0  0  0  0  0  0  0  0  0  0
    0.3990    0.1930   27.3700 H   0  0  0  0  0  0  0  0  0  0  0  0
  1  2  1  0  0  0  0
  1 62  1  0  0  0  0
  1 63  1  0  0  0  0
  1 64  1  0  0  0  0
  2  3  1  0  0  0  0
  2 60  1  0  0  0  0
  2 61  1  0  0  0  0
  3  4  2  0  0  0  0
  3  5  1  0  0  0  0
  5  6  1  0  0  0  0
  5 50  1  0  0  0  0
  6  7  1  0  0  0  0
  6 58  1  0  0  0  0
  6 59  1  0  0  0  0
  7  8  1  0  0  0  0
  7 56  1  0  0  0  0
  7 57  1  0  0  0  0
  8  9  1  0  0  0  0
  8 54  1  0  0  0  0
  8 55  1  0  0  0  0
  9 10  2  0  0  0  0
  9 50  1  0  0  0  0
 10 11  1  0  0  0  0
 10 53  1  0  0  0  0
 11 12  2  0  0  0  0
 11 52  1  0  0  0  0
 12 13  1  0  0  0  0
 12 49  1  0  0  0  0
 13 14  1  0  0  0  0
 13 28  1  0  0  0  0
 14 15  1  0  0  0  0
 14 26  1  0  0  0  0
 14 27  1  0  0  0  0
 15 16  2  0  0  0  0
 15 21  1  0  0  0  0
 16 17  1  0  0  0  0
 16 25  1  0  0  0  0
 17 18  2  0  0  0  0
 17 24  1  0  0  0  0
 18 19  1  0  0  0  0
 18 23  1  0  0  0  0
 19 20  1  0  0  0  0
 19 21  2  0  0  0  0
 21 22  1  0  0  0  0
 28 29  2  0  0  0  0
 28 30  1  0  0  0  0
 30 31  1  0  0  0  0
 30 47  1  0  0  0  0
 30 48  1  0  0  0  0
 31 32  2  0  0  0  0
 31 41  1  0  0  0  0
 32 33  1  0  0  0  0
 32 46  1  0  0  0  0
 33 34  2  0  0  0  0
 34 35  1  0  0  0  0
 34 45  1  0  0  0  0
 35 36  2  0  0  0  0
 35 41  1  0  0  0  0
 36 37  1  0  0  0  0
 36 38  1  0  0  0  0
 38 39  2  0  0  0  0
 38 44  1  0  0  0  0
 39 40  1  0  0  0  0
 39 43  1  0  0  0  0
 40 41  2  0  0  0  0
 40 42  1  0  0  0  0
 49 50  2  0  0  0  0
 49 51  1  0  0  0  0
M  END
>  <MODEL>
       1

$$$$
best_conformers_69.pdb
 OpenBabel02042510453D

 64 68  0  0  0  0  0  0  0  0999 V2000
    8.7340   -6.9320   24.0010 C   0  0  0  0  0  0  0  0  0  0  0  0
    8.8880   -5.4690   24.4260 C   0  0  0  0  0  0  0  0  0  0  0  0
    7.8220   -4.5460   23.8630 C   0  0  0  0  0  0  0  0  0  0  0  0
    7.7770   -4.2570   22.6840 O   0  0  0  0  0  0  0  0  0  0  0  0
    6.9140   -4.0860   24.8110 N   0  0  0  0  0  0  0  0  0  0  0  0
    6.6620   -4.9180   25.9680 C   0  0  0  0  0  0  0  0  0  0  0  0
    5.2210   -4.8080   26.3930 C   0  0  0  0  0  0  0  0  0  0  0  0
    4.9450   -3.3610   26.7890 C   0  0  0  0  0  0  0  0  0  0  0  0
    5.4590   -2.3800   25.7480 C   0  0  0  0  0  0  0  0  0  0  0  0
    4.9960   -1.0640   25.6990 C   0  0  0  0  0  0  0  0  0  0  0  0
    5.5180   -0.1310   24.8110 C   0  0  0  0  0  0  0  0  0  0  0  0
    6.5180   -0.5280   23.9220 C   0  0  0  0  0  0  0  0  0  0  0  0
    7.1220    0.4320   23.0510 N   0  0  0  0  0  0  0  0  0  0  0  0
    7.9280    1.4630   23.7070 C   0  0  0  0  0  0  0  0  0  0  0  0
    9.2560    0.9450   24.2210 C   0  0  0  0  0  0  0  0  0  0  0  0
    9.3330    0.0960   25.3280 C   0  0  0  0  0  0  0  0  0  0  0  0
   10.5690   -0.3650   25.7700 C   0  0  0  0  0  0  0  0  0  0  0  0
   11.7400    0.0220   25.1280 C   0  0  0  0  0  0  0  0  0  0  0  0
   11.6480    0.8310   24.0050 C   0  0  0  0  0  0  0  0  0  0  0  0
   13.0930    1.2950   23.1570 Cl  0  0  0  0  0  0  0  0  0  0  0  0
   10.4180    1.2620   23.5270 C   0  0  0  0  0  0  0  0  0  0  0  0
   10.3610    1.8370   22.6070 H   0  0  0  0  0  0  0  0  0  0  0  0
   12.7060   -0.3230   25.4800 H   0  0  0  0  0  0  0  0  0  0  0  0
   10.6270   -1.0000   26.6490 H   0  0  0  0  0  0  0  0  0  0  0  0
    8.4250   -0.2250   25.8310 H   0  0  0  0  0  0  0  0  0  0  0  0
    8.0870    2.2670   22.9860 H   0  0  0  0  0  0  0  0  0  0  0  0
    7.3420    1.8620   24.5380 H   0  0  0  0  0  0  0  0  0  0  0  0
    7.3740    0.1850   21.7100 C   0  0  0  0  0  0  0  0  0  0  0  0
    8.2240    0.7980   21.0890 O   0  0  0  0  0  0  0  0  0  0  0  0
    6.4640   -0.8350   21.0090 C   0  0  0  0  0  0  0  0  0  0  0  0
    5.8010   -0.1940   19.8240 C   0  0  0  0  0  0  0  0  0  0  0  0
    6.2640   -0.4260   18.5580 C   0  0  0  0  0  0  0  0  0  0  0  0
    5.7830    0.1470   17.4250 N   0  0  0  0  0  0  0  0  0  0  0  0
    4.7950    1.0040   17.5720 C   0  0  0  0  0  0  0  0  0  0  0  0
    4.2330    1.3470   18.8320 C   0  0  0  0  0  0  0  0  0  0  0  0
    3.1940    2.2950   18.9620 C   0  0  0  0  0  0  0  0  0  0  0  0
    2.7350    2.8630   17.8330 F   0  0  0  0  0  0  0  0  0  0  0  0
    2.6610    2.6480   20.1650 C   0  0  0  0  0  0  0  0  0  0  0  0
    3.1680    2.0370   21.3290 C   0  0  0  0  0  0  0  0  0  0  0  0
    4.1760    1.1080   21.2630 C   0  0  0  0  0  0  0  0  0  0  0  0
    4.7380    0.7420   20.0050 C   0  0  0  0  0  0  0  0  0  0  0  0
    4.5460    0.6710   22.1880 H   0  0  0  0  0  0  0  0  0  0  0  0
    2.7460    2.3170   22.2910 H   0  0  0  0  0  0  0  0  0  0  0  0
    1.8700    3.3880   20.2130 H   0  0  0  0  0  0  0  0  0  0  0  0
    4.3920    1.4760   16.6790 H   0  0  0  0  0  0  0  0  0  0  0  0
    7.0880   -1.1260   18.4030 H   0  0  0  0  0  0  0  0  0  0  0  0
    7.0960   -1.6760   20.6910 H   0  0  0  0  0  0  0  0  0  0  0  0
    5.7120   -1.2360   21.6970 H   0  0  0  0  0  0  0  0  0  0  0  0
    6.9880   -1.8340   23.9300 C   0  0  0  0  0  0  0  0  0  0  0  0
    6.4350   -2.7650   24.8130 C   0  0  0  0  0  0  0  0  0  0  0  0
    7.8130   -2.1070   23.2780 H   0  0  0  0  0  0  0  0  0  0  0  0
    5.1530    0.8950   24.8010 H   0  0  0  0  0  0  0  0  0  0  0  0
    4.2270   -0.7480   26.3980 H   0  0  0  0  0  0  0  0  0  0  0  0
    3.8690   -3.2160   26.9450 H   0  0  0  0  0  0  0  0  0  0  0  0
    5.4330   -3.1560   27.7590 H   0  0  0  0  0  0  0  0  0  0  0  0
    5.0290   -5.4900   27.2280 H   0  0  0  0  0  0  0  0  0  0  0  0
    4.5960   -5.1220   25.5490 H   0  0  0  0  0  0  0  0  0  0  0  0
    6.8930   -5.9330   25.6510 H   0  0  0  0  0  0  0  0  0  0  0  0
    7.3340   -4.6430   26.7960 H   0  0  0  0  0  0  0  0  0  0  0  0
    8.9060   -5.4000   25.5160 H   0  0  0  0  0  0  0  0  0  0  0  0
    9.8350   -5.0510   24.0940 H   0  0  0  0  0  0  0  0  0  0  0  0
    8.4630   -7.0330   22.9470 H   0  0  0  0  0  0  0  0  0  0  0  0
    9.6760   -7.4620   24.1640 H   0  0  0  0  0  0  0  0  0  0  0  0
    7.9720   -7.4620   24.5830 H   0  0  0  0  0  0  0  0  0  0  0  0
  1  2  1  0  0  0  0
  1 62  1  0  0  0  0
  1 63  1  0  0  0  0
  1 64  1  0  0  0  0
  2  3  1  0  0  0  0
  2 60  1  0  0  0  0
  2 61  1  0  0  0  0
  3  4  2  0  0  0  0
  3  5  1  0  0  0  0
  5  6  1  0  0  0  0
  5 50  1  0  0  0  0
  6  7  1  0  0  0  0
  6 58  1  0  0  0  0
  6 59  1  0  0  0  0
  7  8  1  0  0  0  0
  7 56  1  0  0  0  0
  7 57  1  0  0  0  0
  8  9  1  0  0  0  0
  8 54  1  0  0  0  0
  8 55  1  0  0  0  0
  9 10  2  0  0  0  0
  9 50  1  0  0  0  0
 10 11  1  0  0  0  0
 10 53  1  0  0  0  0
 11 12  2  0  0  0  0
 11 52  1  0  0  0  0
 12 13  1  0  0  0  0
 12 49  1  0  0  0  0
 13 14  1  0  0  0  0
 13 28  1  0  0  0  0
 14 15  1  0  0  0  0
 14 26  1  0  0  0  0
 14 27  1  0  0  0  0
 15 16  2  0  0  0  0
 15 21  1  0  0  0  0
 16 17  1  0  0  0  0
 16 25  1  0  0  0  0
 17 18  2  0  0  0  0
 17 24  1  0  0  0  0
 18 19  1  0  0  0  0
 18 23  1  0  0  0  0
 19 20  1  0  0  0  0
 19 21  2  0  0  0  0
 21 22  1  0  0  0  0
 28 29  2  0  0  0  0
 28 30  1  0  0  0  0
 30 31  1  0  0  0  0
 30 47  1  0  0  0  0
 30 48  1  0  0  0  0
 31 32  2  0  0  0  0
 31 41  1  0  0  0  0
 32 33  1  0  0  0  0
 32 46  1  0  0  0  0
 33 34  2  0  0  0  0
 34 35  1  0  0  0  0
 34 45  1  0  0  0  0
 35 36  2  0  0  0  0
 35 41  1  0  0  0  0
 36 37  1  0  0  0  0
 36 38  1  0  0  0  0
 38 39  2  0  0  0  0
 38 44  1  0  0  0  0
 39 40  1  0  0  0  0
 39 43  1  0  0  0  0
 40 41  2  0  0  0  0
 40 42  1  0  0  0  0
 49 50  2  0  0  0  0
 49 51  1  0  0  0  0
M  END
>  <MODEL>
       2

$$$$
best_conformers_69.pdb
 OpenBabel02042510453D

 64 68  0  0  0  0  0  0  0  0999 V2000
    1.4900   -0.1960   28.3660 C   0  0  0  0  0  0  0  0  0  0  0  0
    1.9910   -0.4250   26.9420 C   0  0  0  0  0  0  0  0  0  0  0  0
    3.4870   -0.6080   26.8230 C   0  0  0  0  0  0  0  0  0  0  0  0
    4.2350    0.3300   27.0260 O   0  0  0  0  0  0  0  0  0  0  0  0
    3.9410   -1.8610   26.4220 N   0  0  0  0  0  0  0  0  0  0  0  0
    3.2690   -3.0810   26.8630 C   0  0  0  0  0  0  0  0  0  0  0  0
    4.2960   -4.1040   27.3270 C   0  0  0  0  0  0  0  0  0  0  0  0
    5.2160   -4.4410   26.1590 C   0  0  0  0  0  0  0  0  0  0  0  0
    5.7190   -3.2050   25.4520 C   0  0  0  0  0  0  0  0  0  0  0  0
    6.8480   -3.2830   24.6450 C   0  0  0  0  0  0  0  0  0  0  0  0
    7.2940   -2.1950   23.9110 C   0  0  0  0  0  0  0  0  0  0  0  0
    6.5900   -0.9870   23.9830 C   0  0  0  0  0  0  0  0  0  0  0  0
    7.0190    0.1540   23.2320 N   0  0  0  0  0  0  0  0  0  0  0  0
    7.6730    1.2200   23.9910 C   0  0  0  0  0  0  0  0  0  0  0  0
    9.0910    0.8770   24.4190 C   0  0  0  0  0  0  0  0  0  0  0  0
    9.3210    0.0900   25.5510 C   0  0  0  0  0  0  0  0  0  0  0  0
   10.6200   -0.2440   25.9250 C   0  0  0  0  0  0  0  0  0  0  0  0
   11.7100    0.2420   25.2050 C   0  0  0  0  0  0  0  0  0  0  0  0
   11.4740    1.0420   24.0910 C   0  0  0  0  0  0  0  0  0  0  0  0
   12.8240    1.7300   23.2300 Cl  0  0  0  0  0  0  0  0  0  0  0  0
   10.1820    1.3580   23.6880 C   0  0  0  0  0  0  0  0  0  0  0  0
   10.0410    2.0560   22.8640 H   0  0  0  0  0  0  0  0  0  0  0  0
   12.7280    0.0260   25.5130 H   0  0  0  0  0  0  0  0  0  0  0  0
   10.7870   -0.8380   26.8170 H   0  0  0  0  0  0  0  0  0  0  0  0
    8.4810   -0.2370   26.1640 H   0  0  0  0  0  0  0  0  0  0  0  0
    7.6650    2.0980   23.3420 H   0  0  0  0  0  0  0  0  0  0  0  0
    7.0380    1.4170   24.8660 H   0  0  0  0  0  0  0  0  0  0  0  0
    7.2660    0.1330   21.8640 C   0  0  0  0  0  0  0  0  0  0  0  0
    8.0460    0.8980   21.3290 O   0  0  0  0  0  0  0  0  0  0  0  0
    6.4370   -0.8450   21.0390 C   0  0  0  0  0  0  0  0  0  0  0  0
    5.7910   -0.1840   19.8540 C   0  0  0  0  0  0  0  0  0  0  0  0
    6.2500   -0.4270   18.5870 C   0  0  0  0  0  0  0  0  0  0  0  0
    5.7810    0.1470   17.4490 N   0  0  0  0  0  0  0  0  0  0  0  0
    4.7970    1.0070   17.5880 C   0  0  0  0  0  0  0  0  0  0  0  0
    4.2310    1.3560   18.8420 C   0  0  0  0  0  0  0  0  0  0  0  0
    3.1900    2.2980   18.9700 C   0  0  0  0  0  0  0  0  0  0  0  0
    2.7340    2.8730   17.8420 F   0  0  0  0  0  0  0  0  0  0  0  0
    2.6510    2.6390   20.1760 C   0  0  0  0  0  0  0  0  0  0  0  0
    3.1540    2.0300   21.3440 C   0  0  0  0  0  0  0  0  0  0  0  0
    4.1680    1.1090   21.2770 C   0  0  0  0  0  0  0  0  0  0  0  0
    4.7310    0.7540   20.0210 C   0  0  0  0  0  0  0  0  0  0  0  0
    4.5600    0.6640   22.1890 H   0  0  0  0  0  0  0  0  0  0  0  0
    2.7310    2.2960   22.3090 H   0  0  0  0  0  0  0  0  0  0  0  0
    1.8550    3.3750   20.2140 H   0  0  0  0  0  0  0  0  0  0  0  0
    4.4010    1.4750   16.6890 H   0  0  0  0  0  0  0  0  0  0  0  0
    7.0560   -1.1460   18.4260 H   0  0  0  0  0  0  0  0  0  0  0  0
    5.6900   -1.3050   21.6900 H   0  0  0  0  0  0  0  0  0  0  0  0
    7.1260   -1.6290   20.6990 H   0  0  0  0  0  0  0  0  0  0  0  0
    5.5220   -0.8510   24.8580 C   0  0  0  0  0  0  0  0  0  0  0  0
    5.0700   -1.9640   25.5820 C   0  0  0  0  0  0  0  0  0  0  0  0
    5.0470    0.1190   24.9650 H   0  0  0  0  0  0  0  0  0  0  0  0
    8.1900   -2.2590   23.2970 H   0  0  0  0  0  0  0  0  0  0  0  0
    7.3880   -4.2280   24.5850 H   0  0  0  0  0  0  0  0  0  0  0  0
    4.6690   -5.0620   25.4340 H   0  0  0  0  0  0  0  0  0  0  0  0
    6.0790   -5.0380   26.4820 H   0  0  0  0  0  0  0  0  0  0  0  0
    4.8780   -3.6840   28.1540 H   0  0  0  0  0  0  0  0  0  0  0  0
    3.7900   -5.0020   27.6980 H   0  0  0  0  0  0  0  0  0  0  0  0
    2.6650   -3.5040   26.0470 H   0  0  0  0  0  0  0  0  0  0  0  0
    2.5950   -2.7980   27.6750 H   0  0  0  0  0  0  0  0  0  0  0  0
    1.7950    0.4780   26.3570 H   0  0  0  0  0  0  0  0  0  0  0  0
    1.4700   -1.2500   26.4510 H   0  0  0  0  0  0  0  0  0  0  0  0
    1.9870    0.6770   28.7960 H   0  0  0  0  0  0  0  0  0  0  0  0
    1.6610   -1.0470   29.0370 H   0  0  0  0  0  0  0  0  0  0  0  0
    0.4120    0.0040   28.3510 H   0  0  0  0  0  0  0  0  0  0  0  0
  1  2  1  0  0  0  0
  1 62  1  0  0  0  0
  1 63  1  0  0  0  0
  1 64  1  0  0  0  0
  2  3  1  0  0  0  0
  2 60  1  0  0  0  0
  2 61  1  0  0  0  0
  3  4  2  0  0  0  0
  3  5  1  0  0  0  0
  5  6  1  0  0  0  0
  5 50  1  0  0  0  0
  6  7  1  0  0  0  0
  6 58  1  0  0  0  0
  6 59  1  0  0  0  0
  7  8  1  0  0  0  0
  7 56  1  0  0  0  0
  7 57  1  0  0  0  0
  8  9  1  0  0  0  0
  8 54  1  0  0  0  0
  8 55  1  0  0  0  0
  9 10  2  0  0  0  0
  9 50  1  0  0  0  0
 10 11  1  0  0  0  0
 10 53  1  0  0  0  0
 11 12  2  0  0  0  0
 11 52  1  0  0  0  0
 12 13  1  0  0  0  0
 12 49  1  0  0  0  0
 13 14  1  0  0  0  0
 13 28  1  0  0  0  0
 14 15  1  0  0  0  0
 14 26  1  0  0  0  0
 14 27  1  0  0  0  0
 15 16  2  0  0  0  0
 15 21  1  0  0  0  0
 16 17  1  0  0  0  0
 16 25  1  0  0  0  0
 17 18  2  0  0  0  0
 17 24  1  0  0  0  0
 18 19  1  0  0  0  0
 18 23  1  0  0  0  0
 19 20  1  0  0  0  0
 19 21  2  0  0  0  0
 21 22  1  0  0  0  0
 28 29  2  0  0  0  0
 28 30  1  0  0  0  0
 30 31  1  0  0  0  0
 30 47  1  0  0  0  0
 30 48  1  0  0  0  0
 31 32  2  0  0  0  0
 31 41  1  0  0  0  0
 32 33  1  0  0  0  0
 32 46  1  0  0  0  0
 33 34  2  0  0  0  0
 34 35  1  0  0  0  0
 34 45  1  0  0  0  0
 35 36  2  0  0  0  0
 35 41  1  0  0  0  0
 36 37  1  0  0  0  0
 36 38  1  0  0  0  0
 38 39  2  0  0  0  0
 38 44  1  0  0  0  0
 39 40  1  0  0  0  0
 39 43  1  0  0  0  0
 40 41  2  0  0  0  0
 40 42  1  0  0  0  0
 49 50  2  0  0  0  0
 49 51  1  0  0  0  0
M  END
>  <MODEL>
       3

$$$$
best_conformers_69.pdb
 OpenBabel02042510453D

 64 68  0  0  0  0  0  0  0  0999 V2000
    9.0540   -6.8970   24.2460 C   0  0  0  0  0  0  0  0  0  0  0  0
    9.2000   -5.4050   24.5640 C   0  0  0  0  0  0  0  0  0  0  0  0
    8.1190   -4.5200   23.9660 C   0  0  0  0  0  0  0  0  0  0  0  0
    8.0600   -4.2680   22.7750 O   0  0  0  0  0  0  0  0  0  0  0  0
    7.2220   -4.0390   24.9140 N   0  0  0  0  0  0  0  0  0  0  0  0
    6.9930   -4.8530   26.0860 C   0  0  0  0  0  0  0  0  0  0  0  0
    5.5310   -4.8520   26.4600 C   0  0  0  0  0  0  0  0  0  0  0  0
    5.1440   -3.4220   26.8040 C   0  0  0  0  0  0  0  0  0  0  0  0
    5.6370   -2.4280   25.7690 C   0  0  0  0  0  0  0  0  0  0  0  0
    5.1020   -1.1430   25.7000 C   0  0  0  0  0  0  0  0  0  0  0  0
    5.5770   -0.1910   24.8050 C   0  0  0  0  0  0  0  0  0  0  0  0
    6.6080   -0.5340   23.9330 C   0  0  0  0  0  0  0  0  0  0  0  0
    7.1410    0.4490   23.0390 N   0  0  0  0  0  0  0  0  0  0  0  0
    7.8880    1.5660   23.6330 C   0  0  0  0  0  0  0  0  0  0  0  0
    9.2780    1.1190   24.0450 C   0  0  0  0  0  0  0  0  0  0  0  0
   10.4190    1.5580   23.3720 C   0  0  0  0  0  0  0  0  0  0  0  0
   11.6830    1.1570   23.7960 C   0  0  0  0  0  0  0  0  0  0  0  0
   11.8050    0.2400   24.8310 C   0  0  0  0  0  0  0  0  0  0  0  0
   10.6540   -0.2640   25.4330 C   0  0  0  0  0  0  0  0  0  0  0  0
   10.8110   -1.5120   26.6410 Cl  0  0  0  0  0  0  0  0  0  0  0  0
    9.3940    0.2010   25.0910 C   0  0  0  0  0  0  0  0  0  0  0  0
    8.5130   -0.1210   25.6520 H   0  0  0  0  0  0  0  0  0  0  0  0
   12.7790   -0.1050   25.1640 H   0  0  0  0  0  0  0  0  0  0  0  0
   12.5690    1.5160   23.2750 H   0  0  0  0  0  0  0  0  0  0  0  0
   10.3070    2.1720   22.4790 H   0  0  0  0  0  0  0  0  0  0  0  0
    7.3280    1.9000   24.5200 H   0  0  0  0  0  0  0  0  0  0  0  0
    7.9150    2.3790   22.8990 H   0  0  0  0  0  0  0  0  0  0  0  0
    7.3800    0.2010   21.6980 C   0  0  0  0  0  0  0  0  0  0  0  0
    8.2220    0.8160   21.0670 O   0  0  0  0  0  0  0  0  0  0  0  0
    6.4760   -0.8210   21.0070 C   0  0  0  0  0  0  0  0  0  0  0  0
    5.7990   -0.1900   19.8260 C   0  0  0  0  0  0  0  0  0  0  0  0
    6.2520   -0.4290   18.5570 C   0  0  0  0  0  0  0  0  0  0  0  0
    5.7730    0.1470   17.4250 N   0  0  0  0  0  0  0  0  0  0  0  0
    4.7880    1.0060   17.5740 C   0  0  0  0  0  0  0  0  0  0  0  0
    4.2300    1.3520   18.8370 C   0  0  0  0  0  0  0  0  0  0  0  0
    3.1910    2.2990   18.9700 C   0  0  0  0  0  0  0  0  0  0  0  0
    2.7290    2.8660   17.8430 F   0  0  0  0  0  0  0  0  0  0  0  0
    2.6500    2.6490   20.1710 C   0  0  0  0  0  0  0  0  0  0  0  0
    3.1630    2.0340   21.3300 C   0  0  0  0  0  0  0  0  0  0  0  0
    4.1770    1.1100   21.2660 C   0  0  0  0  0  0  0  0  0  0  0  0
    4.7390    0.7460   20.0080 C   0  0  0  0  0  0  0  0  0  0  0  0
    4.5490    0.6720   22.1920 H   0  0  0  0  0  0  0  0  0  0  0  0
    2.7410    2.3130   22.2900 H   0  0  0  0  0  0  0  0  0  0  0  0
    1.8550    3.3880   20.2150 H   0  0  0  0  0  0  0  0  0  0  0  0
    4.3910    1.4770   16.6780 H   0  0  0  0  0  0  0  0  0  0  0  0
    7.0680   -1.1370   18.4170 H   0  0  0  0  0  0  0  0  0  0  0  0
    7.1160   -1.6520   20.6850 H   0  0  0  0  0  0  0  0  0  0  0  0
    5.7470   -1.2110   21.7200 H   0  0  0  0  0  0  0  0  0  0  0  0
    7.1690   -1.8030   23.9860 C   0  0  0  0  0  0  0  0  0  0  0  0
    6.6690   -2.7540   24.8760 C   0  0  0  0  0  0  0  0  0  0  0  0
    8.0480   -2.0090   23.3840 H   0  0  0  0  0  0  0  0  0  0  0  0
    5.1700    0.8170   24.7790 H   0  0  0  0  0  0  0  0  0  0  0  0
    4.2880   -0.8690   26.3650 H   0  0  0  0  0  0  0  0  0  0  0  0
    4.0590   -3.3320   26.9140 H   0  0  0  0  0  0  0  0  0  0  0  0
    5.5850   -3.1780   27.7820 H   0  0  0  0  0  0  0  0  0  0  0  0
    5.3490   -5.5340   27.3010 H   0  0  0  0  0  0  0  0  0  0  0  0
    4.9670   -5.2190   25.6000 H   0  0  0  0  0  0  0  0  0  0  0  0
    7.5990   -4.5050   26.9390 H   0  0  0  0  0  0  0  0  0  0  0  0
    7.3180   -5.8430   25.7810 H   0  0  0  0  0  0  0  0  0  0  0  0
    9.2500   -5.2720   25.6460 H   0  0  0  0  0  0  0  0  0  0  0  0
   10.1400   -4.9850   24.2140 H   0  0  0  0  0  0  0  0  0  0  0  0
    8.1980   -7.3600   24.7510 H   0  0  0  0  0  0  0  0  0  0  0  0
    8.9210   -7.0690   23.1760 H   0  0  0  0  0  0  0  0  0  0  0  0
    9.9570   -7.4210   24.5780 H   0  0  0  0  0  0  0  0  0  0  0  0
  1  2  1  0  0  0  0
  1 62  1  0  0  0  0
  1 63  1  0  0  0  0
  1 64  1  0  0  0  0
  2  3  1  0  0  0  0
  2 60  1  0  0  0  0
  2 61  1  0  0  0  0
  3  4  2  0  0  0  0
  3  5  1  0  0  0  0
  5  6  1  0  0  0  0
  5 50  1  0  0  0  0
  6  7  1  0  0  0  0
  6 58  1  0  0  0  0
  6 59  1  0  0  0  0
  7  8  1  0  0  0  0
  7 56  1  0  0  0  0
  7 57  1  0  0  0  0
  8  9  1  0  0  0  0
  8 54  1  0  0  0  0
  8 55  1  0  0  0  0
  9 10  2  0  0  0  0
  9 50  1  0  0  0  0
 10 11  1  0  0  0  0
 10 53  1  0  0  0  0
 11 12  2  0  0  0  0
 11 52  1  0  0  0  0
 12 13  1  0  0  0  0
 12 49  1  0  0  0  0
 13 14  1  0  0  0  0
 13 28  1  0  0  0  0
 14 15  1  0  0  0  0
 14 26  1  0  0  0  0
 14 27  1  0  0  0  0
 15 16  2  0  0  0  0
 15 21  1  0  0  0  0
 16 17  1  0  0  0  0
 16 25  1  0  0  0  0
 17 18  2  0  0  0  0
 17 24  1  0  0  0  0
 18 19  1  0  0  0  0
 18 23  1  0  0  0  0
 19 20  1  0  0  0  0
 19 21  2  0  0  0  0
 21 22  1  0  0  0  0
 28 29  2  0  0  0  0
 28 30  1  0  0  0  0
 30 31  1  0  0  0  0
 30 47  1  0  0  0  0
 30 48  1  0  0  0  0
 31 32  2  0  0  0  0
 31 41  1  0  0  0  0
 32 33  1  0  0  0  0
 32 46  1  0  0  0  0
 33 34  2  0  0  0  0
 34 35  1  0  0  0  0
 34 45  1  0  0  0  0
 35 36  2  0  0  0  0
 35 41  1  0  0  0  0
 36 37  1  0  0  0  0
 36 38  1  0  0  0  0
 38 39  2  0  0  0  0
 38 44  1  0  0  0  0
 39 40  1  0  0  0  0
 39 43  1  0  0  0  0
 40 41  2  0  0  0  0
 40 42  1  0  0  0  0
 49 50  2  0  0  0  0
 49 51  1  0  0  0  0
M  END
>  <MODEL>
       4

$$$$
best_conformers_69.pdb
 OpenBabel02042510453D

 64 68  0  0  0  0  0  0  0  0999 V2000
    1.7620   -0.1330   24.2260 C   0  0  0  0  0  0  0  0  0  0  0  0
    1.7120   -0.8620   25.5870 C   0  0  0  0  0  0  0  0  0  0  0  0
    3.1430   -0.9430   26.0920 C   0  0  0  0  0  0  0  0  0  0  0  0
    3.6850    0.0330   26.5620 O   0  0  0  0  0  0  0  0  0  0  0  0
    3.8360   -2.1490   25.8810 N   0  0  0  0  0  0  0  0  0  0  0  0
    3.2610   -3.4390   26.2670 C   0  0  0  0  0  0  0  0  0  0  0  0
    4.3230   -4.3040   26.9420 C   0  0  0  0  0  0  0  0  0  0  0  0
    5.4670   -4.5340   25.9620 C   0  0  0  0  0  0  0  0  0  0  0  0
    5.9310   -3.2420   25.3280 C   0  0  0  0  0  0  0  0  0  0  0  0
    7.1850   -3.1810   24.7330 C   0  0  0  0  0  0  0  0  0  0  0  0
    7.6280   -2.0570   24.0520 C   0  0  0  0  0  0  0  0  0  0  0  0
    6.7870   -0.9480   23.9690 C   0  0  0  0  0  0  0  0  0  0  0  0
    7.2100    0.1980   23.2280 N   0  0  0  0  0  0  0  0  0  0  0  0
    7.6170    1.3980   23.9550 C   0  0  0  0  0  0  0  0  0  0  0  0
    6.4920    2.4120   24.0450 C   0  0  0  0  0  0  0  0  0  0  0  0
    6.2440    3.2770   22.9800 C   0  0  0  0  0  0  0  0  0  0  0  0
    5.1750    4.1660   23.0260 C   0  0  0  0  0  0  0  0  0  0  0  0
    4.3320    4.1980   24.1320 C   0  0  0  0  0  0  0  0  0  0  0  0
    4.5900    3.3400   25.1910 C   0  0  0  0  0  0  0  0  0  0  0  0
    3.5170    3.3480   26.5620 Cl  0  0  0  0  0  0  0  0  0  0  0  0
    5.6600    2.4520   25.1660 C   0  0  0  0  0  0  0  0  0  0  0  0
    5.7910    1.7650   26.0010 H   0  0  0  0  0  0  0  0  0  0  0  0
    3.4630    4.8500   24.1720 H   0  0  0  0  0  0  0  0  0  0  0  0
    4.9680    4.8150   22.1750 H   0  0  0  0  0  0  0  0  0  0  0  0
    6.8870    3.2330   22.1020 H   0  0  0  0  0  0  0  0  0  0  0  0
    7.9160    1.0820   24.9590 H   0  0  0  0  0  0  0  0  0  0  0  0
    8.4700    1.8200   23.4110 H   0  0  0  0  0  0  0  0  0  0  0  0
    7.3110    0.2340   21.8540 C   0  0  0  0  0  0  0  0  0  0  0  0
    8.0230    1.0410   21.2840 O   0  0  0  0  0  0  0  0  0  0  0  0
    6.4780   -0.7830   21.0550 C   0  0  0  0  0  0  0  0  0  0  0  0
    5.8160   -0.1590   19.8550 C   0  0  0  0  0  0  0  0  0  0  0  0
    6.2520   -0.4240   18.5830 C   0  0  0  0  0  0  0  0  0  0  0  0
    5.7720    0.1430   17.4440 N   0  0  0  0  0  0  0  0  0  0  0  0
    4.7970    1.0140   17.5820 C   0  0  0  0  0  0  0  0  0  0  0  0
    4.2340    1.3640   18.8410 C   0  0  0  0  0  0  0  0  0  0  0  0
    3.1890    2.3040   18.9770 C   0  0  0  0  0  0  0  0  0  0  0  0
    2.7430    2.8800   17.8480 F   0  0  0  0  0  0  0  0  0  0  0  0
    2.6340    2.6330   20.1750 C   0  0  0  0  0  0  0  0  0  0  0  0
    3.1200    2.0020   21.3390 C   0  0  0  0  0  0  0  0  0  0  0  0
    4.1490    1.0970   21.2670 C   0  0  0  0  0  0  0  0  0  0  0  0
    4.7400    0.7620   20.0160 C   0  0  0  0  0  0  0  0  0  0  0  0
    4.5370    0.6480   22.1790 H   0  0  0  0  0  0  0  0  0  0  0  0
    2.6860    2.2500   22.3080 H   0  0  0  0  0  0  0  0  0  0  0  0
    1.8430    3.3740   20.1990 H   0  0  0  0  0  0  0  0  0  0  0  0
    4.3980    1.4740   16.6800 H   0  0  0  0  0  0  0  0  0  0  0  0
    7.0450   -1.1520   18.4120 H   0  0  0  0  0  0  0  0  0  0  0  0
    5.7620   -1.2680   21.7270 H   0  0  0  0  0  0  0  0  0  0  0  0
    7.1760   -1.5540   20.7100 H   0  0  0  0  0  0  0  0  0  0  0  0
    5.5530   -0.9550   24.6060 C   0  0  0  0  0  0  0  0  0  0  0  0
    5.1130   -2.1010   25.2920 C   0  0  0  0  0  0  0  0  0  0  0  0
    4.9040   -0.0890   24.5000 H   0  0  0  0  0  0  0  0  0  0  0  0
    8.6160   -2.0320   23.5990 H   0  0  0  0  0  0  0  0  0  0  0  0
    7.8300   -4.0570   24.8090 H   0  0  0  0  0  0  0  0  0  0  0  0
    6.3250   -5.0090   26.4500 H   0  0  0  0  0  0  0  0  0  0  0  0
    5.1430   -5.2320   25.1720 H   0  0  0  0  0  0  0  0  0  0  0  0
    4.6900   -3.7970   27.8420 H   0  0  0  0  0  0  0  0  0  0  0  0
    3.8830   -5.2550   27.2550 H   0  0  0  0  0  0  0  0  0  0  0  0
    2.8460   -3.9690   25.3920 H   0  0  0  0  0  0  0  0  0  0  0  0
    2.4430   -3.2280   26.9620 H   0  0  0  0  0  0  0  0  0  0  0  0
    1.1460   -0.2850   26.3250 H   0  0  0  0  0  0  0  0  0  0  0  0
    1.2510   -1.8530   25.4920 H   0  0  0  0  0  0  0  0  0  0  0  0
    2.4700   -0.6310   23.5520 H   0  0  0  0  0  0  0  0  0  0  0  0
    0.7760   -0.1000   23.7530 H   0  0  0  0  0  0  0  0  0  0  0  0
    2.1210    0.8970   24.3390 H   0  0  0  0  0  0  0  0  0  0  0  0
  1  2  1  0  0  0  0
  1 62  1  0  0  0  0
  1 63  1  0  0  0  0
  1 64  1  0  0  0  0
  2  3  1  0  0  0  0
  2 60  1  0  0  0  0
  2 61  1  0  0  0  0
  3  4  2  0  0  0  0
  3  5  1  0  0  0  0
  5  6  1  0  0  0  0
  5 50  1  0  0  0  0
  6  7  1  0  0  0  0
  6 58  1  0  0  0  0
  6 59  1  0  0  0  0
  7  8  1  0  0  0  0
  7 56  1  0  0  0  0
  7 57  1  0  0  0  0
  8  9  1  0  0  0  0
  8 54  1  0  0  0  0
  8 55  1  0  0  0  0
  9 10  2  0  0  0  0
  9 50  1  0  0  0  0
 10 11  1  0  0  0  0
 10 53  1  0  0  0  0
 11 12  2  0  0  0  0
 11 52  1  0  0  0  0
 12 13  1  0  0  0  0
 12 49  1  0  0  0  0
 13 14  1  0  0  0  0
 13 28  1  0  0  0  0
 14 15  1  0  0  0  0
 14 26  1  0  0  0  0
 14 27  1  0  0  0  0
 15 16  2  0  0  0  0
 15 21  1  0  0  0  0
 16 17  1  0  0  0  0
 16 25  1  0  0  0  0
 17 18  2  0  0  0  0
 17 24  1  0  0  0  0
 18 19  1  0  0  0  0
 18 23  1  0  0  0  0
 19 20  1  0  0  0  0
 19 21  2  0  0  0  0
 21 22  1  0  0  0  0
 28 29  2  0  0  0  0
 28 30  1  0  0  0  0
 30 31  1  0  0  0  0
 30 47  1  0  0  0  0
 30 48  1  0  0  0  0
 31 32  2  0  0  0  0
 31 41  1  0  0  0  0
 32 33  1  0  0  0  0
 32 46  1  0  0  0  0
 33 34  2  0  0  0  0
 34 35  1  0  0  0  0
 34 45  1  0  0  0  0
 35 36  2  0  0  0  0
 35 41  1  0  0  0  0
 36 37  1  0  0  0  0
 36 38  1  0  0  0  0
 38 39  2  0  0  0  0
 38 44  1  0  0  0  0
 39 40  1  0  0  0  0
 39 43  1  0  0  0  0
 40 41  2  0  0  0  0
 40 42  1  0  0  0  0
 49 50  2  0  0  0  0
 49 51  1  0  0  0  0
M  END
>  <MODEL>
       5

$$$$
