best_conformers_73.pdb
 OpenBabel02042510453D

 56 61  0  0  1  0  0  0  0  0999 V2000
    6.8630   -3.6510   23.2840 C   0  0  0  0  0  0  0  0  0  0  0  0
    7.2950   -2.4810   22.3920 C   0  0  1  0  0  0  0  0  0  0  0  0
    6.3110   -2.2100   21.2410 C   0  0  0  0  0  0  0  0  0  0  0  0
    6.4520   -0.7900   20.9730 N   0  0  0  0  0  0  0  0  0  0  0  0
    5.8440   -0.1520   19.8610 C   0  0  0  0  0  0  0  0  0  0  0  0
    6.2550   -0.4550   18.5870 C   0  0  0  0  0  0  0  0  0  0  0  0
    5.7670    0.1180   17.4600 N   0  0  0  0  0  0  0  0  0  0  0  0
    4.8040    1.0000   17.6070 C   0  0  0  0  0  0  0  0  0  0  0  0
    4.2380    1.3680   18.8580 C   0  0  0  0  0  0  0  0  0  0  0  0
    3.1780    2.3110   18.9530 C   0  0  0  0  0  0  0  0  0  0  0  0
    2.6290    2.6230   20.1680 C   0  0  0  0  0  0  0  0  0  0  0  0
    3.1120    1.9960   21.3400 C   0  0  0  0  0  0  0  0  0  0  0  0
    4.1400    1.0890   21.2710 C   0  0  0  0  0  0  0  0  0  0  0  0
    4.7530    0.7650   20.0290 C   0  0  0  0  0  0  0  0  0  0  0  0
    4.5000    0.6200   22.1810 H   0  0  0  0  0  0  0  0  0  0  0  0
    2.6740    2.2480   22.3020 H   0  0  0  0  0  0  0  0  0  0  0  0
    1.8240    3.3510   20.2390 H   0  0  0  0  0  0  0  0  0  0  0  0
    2.8170    2.7800   18.0390 H   0  0  0  0  0  0  0  0  0  0  0  0
    4.4180    1.4620   16.6990 H   0  0  0  0  0  0  0  0  0  0  0  0
    7.0410   -1.1930   18.4290 H   0  0  0  0  0  0  0  0  0  0  0  0
    7.1030   -0.0930   21.9720 C   0  0  0  0  0  0  0  0  0  0  0  0
    7.2760    1.1080   21.9750 O   0  0  0  0  0  0  0  0  0  0  0  0
    7.4950   -1.0830   23.0820 C   0  0  1  0  0  0  0  0  0  0  0  0
    6.5430   -0.8150   24.2720 C   0  0  0  0  0  0  0  0  0  0  0  0
    6.9520   -1.5360   25.4670 N   0  0  0  0  0  0  0  0  0  0  0  0
    5.9440   -2.1700   26.3080 C   0  0  0  0  0  0  0  0  0  0  0  0
    6.2620   -3.5720   26.9120 C   0  0  0  0  0  0  0  0  0  0  0  0
    6.1430   -3.0310   28.3330 N   0  3  0  0  0  0  0  0  0  0  0  0
    5.7640   -1.6630   27.7760 C   0  0  0  0  0  0  0  0  0  0  0  0
    6.4530   -0.8840   28.0940 H   0  0  0  0  0  0  0  0  0  0  0  0
    4.7550   -1.3800   28.0720 H   0  0  0  0  0  0  0  0  0  0  0  0
    7.0740   -2.9940   28.7940 H   0  0  0  0  0  0  0  0  0  0  0  0
    5.4500   -3.4940   28.9480 H   0  0  0  0  0  0  0  0  0  0  0  0
    7.2600   -3.9540   26.7080 H   0  0  0  0  0  0  0  0  0  0  0  0
    5.5400   -4.3630   26.7130 H   0  0  0  0  0  0  0  0  0  0  0  0
    5.0260   -2.1340   25.7050 H   0  0  0  0  0  0  0  0  0  0  0  0
    8.2560   -1.5260   25.8830 C   0  0  0  0  0  0  0  0  0  0  0  0
    8.5630   -1.9300   26.9990 O   0  0  0  0  0  0  0  0  0  0  0  0
    9.2770   -1.0700   24.8900 C   0  0  0  0  0  0  0  0  0  0  0  0
   10.6090   -0.9400   25.2890 C   0  0  0  0  0  0  0  0  0  0  0  0
   11.5970   -0.6330   24.3700 C   0  0  0  0  0  0  0  0  0  0  0  0
   11.2430   -0.4730   23.0310 C   0  0  0  0  0  0  0  0  0  0  0  0
   12.4840   -0.0970   21.8740 Cl  0  0  0  0  0  0  0  0  0  0  0  0
    9.9300   -0.6070   22.6130 C   0  0  0  0  0  0  0  0  0  0  0  0
    8.9250   -0.8800   23.5480 C   0  0  0  0  0  0  0  0  0  0  0  0
    9.6860   -0.4820   21.5630 H   0  0  0  0  0  0  0  0  0  0  0  0
   12.6370   -0.5300   24.6620 H   0  0  0  0  0  0  0  0  0  0  0  0
   10.8550   -1.1110   26.3310 H   0  0  0  0  0  0  0  0  0  0  0  0
    5.5200   -1.1240   24.0090 H   0  0  0  0  0  0  0  0  0  0  0  0
    6.5590    0.2740   24.4450 H   0  0  0  0  0  0  0  0  0  0  0  0
    6.5460   -2.7800   20.3420 H   0  0  0  0  0  0  0  0  0  0  0  0
    5.2770   -2.4650   21.5280 H   0  0  0  0  0  0  0  0  0  0  0  0
    8.2780   -2.7260   21.9590 H   0  0  0  0  0  0  0  0  0  0  0  0
    7.5720   -3.8010   24.1050 H   0  0  0  0  0  0  0  0  0  0  0  0
    6.8130   -4.5830   22.7070 H   0  0  0  0  0  0  0  0  0  0  0  0
    5.8720   -3.4790   23.7220 H   0  0  0  0  0  0  0  0  0  0  0  0
  1  2  1  0  0  0  0
  1 54  1  0  0  0  0
  1 55  1  0  0  0  0
  1 56  1  0  0  0  0
  2  3  1  0  0  0  0
  2 23  1  0  0  0  0
  2 53  1  6  0  0  0
  3  4  1  0  0  0  0
  3 51  1  0  0  0  0
  3 52  1  0  0  0  0
  4  5  1  0  0  0  0
  4 21  1  0  0  0  0
  5  6  2  0  0  0  0
  5 14  1  0  0  0  0
  6  7  1  0  0  0  0
  6 20  1  0  0  0  0
  7  8  2  0  0  0  0
  8  9  1  0  0  0  0
  8 19  1  0  0  0  0
  9 10  2  0  0  0  0
  9 14  1  0  0  0  0
 10 11  1  0  0  0  0
 10 18  1  0  0  0  0
 11 12  2  0  0  0  0
 11 17  1  0  0  0  0
 12 13  1  0  0  0  0
 12 16  1  0  0  0  0
 13 14  2  0  0  0  0
 13 15  1  0  0  0  0
 21 22  2  0  0  0  0
 23 21  1  6  0  0  0
 23 24  1  0  0  0  0
 23 45  1  0  0  0  0
 24 25  1  0  0  0  0
 24 49  1  0  0  0  0
 24 50  1  0  0  0  0
 25 26  1  0  0  0  0
 25 37  1  0  0  0  0
 26 27  1  0  0  0  0
 26 29  1  0  0  0  0
 26 36  1  0  0  0  0
 27 28  1  0  0  0  0
 27 34  1  0  0  0  0
 27 35  1  0  0  0  0
 28 29  1  0  0  0  0
 28 32  1  0  0  0  0
 28 33  1  0  0  0  0
 29 30  1  0  0  0  0
 29 31  1  0  0  0  0
 37 38  2  0  0  0  0
 37 39  1  0  0  0  0
 39 40  2  0  0  0  0
 39 45  1  0  0  0  0
 40 41  1  0  0  0  0
 40 48  1  0  0  0  0
 41 42  2  0  0  0  0
 41 47  1  0  0  0  0
 42 43  1  0  0  0  0
 42 44  1  0  0  0  0
 44 45  2  0  0  0  0
 44 46  1  0  0  0  0
M  CHG  1  28   1
M  END
>  <MODEL>
       1

$$$$
best_conformers_73.pdb
 OpenBabel02042510453D

 56 61  0  0  1  0  0  0  0  0999 V2000
    6.8460   -3.6450   23.2940 C   0  0  0  0  0  0  0  0  0  0  0  0
    7.2850   -2.4810   22.3980 C   0  0  1  0  0  0  0  0  0  0  0  0
    6.3040   -2.2090   21.2460 C   0  0  0  0  0  0  0  0  0  0  0  0
    6.4530   -0.7900   20.9720 N   0  0  0  0  0  0  0  0  0  0  0  0
    5.8440   -0.1520   19.8610 C   0  0  0  0  0  0  0  0  0  0  0  0
    6.2550   -0.4550   18.5870 C   0  0  0  0  0  0  0  0  0  0  0  0
    5.7670    0.1180   17.4600 N   0  0  0  0  0  0  0  0  0  0  0  0
    4.8040    1.0000   17.6070 C   0  0  0  0  0  0  0  0  0  0  0  0
    4.2380    1.3680   18.8580 C   0  0  0  0  0  0  0  0  0  0  0  0
    3.1780    2.3110   18.9530 C   0  0  0  0  0  0  0  0  0  0  0  0
    2.6290    2.6230   20.1680 C   0  0  0  0  0  0  0  0  0  0  0  0
    3.1140    1.9970   21.3400 C   0  0  0  0  0  0  0  0  0  0  0  0
    4.1410    1.0900   21.2710 C   0  0  0  0  0  0  0  0  0  0  0  0
    4.7540    0.7650   20.0290 C   0  0  0  0  0  0  0  0  0  0  0  0
    4.5020    0.6210   22.1810 H   0  0  0  0  0  0  0  0  0  0  0  0
    2.6750    2.2500   22.3020 H   0  0  0  0  0  0  0  0  0  0  0  0
    1.8250    3.3510   20.2390 H   0  0  0  0  0  0  0  0  0  0  0  0
    2.8170    2.7800   18.0390 H   0  0  0  0  0  0  0  0  0  0  0  0
    4.4180    1.4620   16.6990 H   0  0  0  0  0  0  0  0  0  0  0  0
    7.0410   -1.1930   18.4290 H   0  0  0  0  0  0  0  0  0  0  0  0
    7.1060   -0.0940   21.9690 C   0  0  0  0  0  0  0  0  0  0  0  0
    7.2850    1.1070   21.9680 O   0  0  0  0  0  0  0  0  0  0  0  0
    7.4940   -1.0820   23.0820 C   0  0  1  0  0  0  0  0  0  0  0  0
    6.5450   -0.8040   24.2730 C   0  0  0  0  0  0  0  0  0  0  0  0
    6.9520   -1.5230   25.4700 N   0  0  0  0  0  0  0  0  0  0  0  0
    5.9410   -2.1470   26.3150 C   0  0  0  0  0  0  0  0  0  0  0  0
    5.7670   -1.6330   27.7810 C   0  0  0  0  0  0  0  0  0  0  0  0
    6.1380   -3.0010   28.3430 N   0  3  0  0  0  0  0  0  0  0  0  0
    6.2520   -3.5480   26.9250 C   0  0  0  0  0  0  0  0  0  0  0  0
    7.2470   -3.9370   26.7200 H   0  0  0  0  0  0  0  0  0  0  0  0
    5.5240   -4.3360   26.7300 H   0  0  0  0  0  0  0  0  0  0  0  0
    7.0700   -2.9680   28.8030 H   0  0  0  0  0  0  0  0  0  0  0  0
    5.4430   -3.4570   28.9610 H   0  0  0  0  0  0  0  0  0  0  0  0
    6.4620   -0.8570   28.0950 H   0  0  0  0  0  0  0  0  0  0  0  0
    4.7600   -1.3410   28.0780 H   0  0  0  0  0  0  0  0  0  0  0  0
    5.0230   -2.1080   25.7130 H   0  0  0  0  0  0  0  0  0  0  0  0
    8.2560   -1.5180   25.8830 C   0  0  0  0  0  0  0  0  0  0  0  0
    8.5640   -1.9200   27.0000 O   0  0  0  0  0  0  0  0  0  0  0  0
    9.2790   -1.0720   24.8870 C   0  0  0  0  0  0  0  0  0  0  0  0
   10.6120   -0.9490   25.2840 C   0  0  0  0  0  0  0  0  0  0  0  0
   11.6010   -0.6520   24.3620 C   0  0  0  0  0  0  0  0  0  0  0  0
   11.2460   -0.4940   23.0240 C   0  0  0  0  0  0  0  0  0  0  0  0
   12.4880   -0.1300   21.8640 Cl  0  0  0  0  0  0  0  0  0  0  0  0
    9.9320   -0.6220   22.6080 C   0  0  0  0  0  0  0  0  0  0  0  0
    8.9260   -0.8850   23.5450 C   0  0  0  0  0  0  0  0  0  0  0  0
    9.6860   -0.4990   21.5580 H   0  0  0  0  0  0  0  0  0  0  0  0
   12.6420   -0.5540   24.6530 H   0  0  0  0  0  0  0  0  0  0  0  0
   10.8590   -1.1180   26.3260 H   0  0  0  0  0  0  0  0  0  0  0  0
    6.5680    0.2860   24.4420 H   0  0  0  0  0  0  0  0  0  0  0  0
    5.5200   -1.1070   24.0130 H   0  0  0  0  0  0  0  0  0  0  0  0
    6.5370   -2.7850   20.3490 H   0  0  0  0  0  0  0  0  0  0  0  0
    5.2680   -2.4570   21.5330 H   0  0  0  0  0  0  0  0  0  0  0  0
    8.2670   -2.7340   21.9670 H   0  0  0  0  0  0  0  0  0  0  0  0
    6.7900   -4.5780   22.7220 H   0  0  0  0  0  0  0  0  0  0  0  0
    7.5540   -3.7970   24.1160 H   0  0  0  0  0  0  0  0  0  0  0  0
    5.8560   -3.4640   23.7320 H   0  0  0  0  0  0  0  0  0  0  0  0
  1  2  1  0  0  0  0
  1 54  1  0  0  0  0
  1 55  1  0  0  0  0
  1 56  1  0  0  0  0
  2  3  1  0  0  0  0
  2 23  1  0  0  0  0
  2 53  1  6  0  0  0
  3  4  1  0  0  0  0
  3 51  1  0  0  0  0
  3 52  1  0  0  0  0
  4  5  1  0  0  0  0
  4 21  1  0  0  0  0
  5  6  2  0  0  0  0
  5 14  1  0  0  0  0
  6  7  1  0  0  0  0
  6 20  1  0  0  0  0
  7  8  2  0  0  0  0
  8  9  1  0  0  0  0
  8 19  1  0  0  0  0
  9 10  2  0  0  0  0
  9 14  1  0  0  0  0
 10 11  1  0  0  0  0
 10 18  1  0  0  0  0
 11 12  2  0  0  0  0
 11 17  1  0  0  0  0
 12 13  1  0  0  0  0
 12 16  1  0  0  0  0
 13 14  2  0  0  0  0
 13 15  1  0  0  0  0
 21 22  2  0  0  0  0
 23 21  1  6  0  0  0
 23 24  1  0  0  0  0
 23 45  1  0  0  0  0
 24 25  1  0  0  0  0
 24 49  1  0  0  0  0
 24 50  1  0  0  0  0
 25 26  1  0  0  0  0
 25 37  1  0  0  0  0
 26 27  1  0  0  0  0
 26 29  1  0  0  0  0
 26 36  1  0  0  0  0
 27 28  1  0  0  0  0
 27 34  1  0  0  0  0
 27 35  1  0  0  0  0
 28 29  1  0  0  0  0
 28 32  1  0  0  0  0
 28 33  1  0  0  0  0
 29 30  1  0  0  0  0
 29 31  1  0  0  0  0
 37 38  2  0  0  0  0
 37 39  1  0  0  0  0
 39 40  2  0  0  0  0
 39 45  1  0  0  0  0
 40 41  1  0  0  0  0
 40 48  1  0  0  0  0
 41 42  2  0  0  0  0
 41 47  1  0  0  0  0
 42 43  1  0  0  0  0
 42 44  1  0  0  0  0
 44 45  2  0  0  0  0
 44 46  1  0  0  0  0
M  CHG  1  28   1
M  END
>  <MODEL>
       2

$$$$
best_conformers_73.pdb
 OpenBabel02042510453D

 56 61  0  0  1  0  0  0  0  0999 V2000
    8.9870   -2.6600   22.1930 C   0  0  0  0  0  0  0  0  0  0  0  0
    7.9400   -1.6090   22.5680 C   0  0  1  0  0  0  0  0  0  0  0  0
    7.7280   -0.6170   21.4020 C   0  0  0  0  0  0  0  0  0  0  0  0
    6.3860   -0.8910   20.9460 N   0  0  0  0  0  0  0  0  0  0  0  0
    5.8120   -0.2130   19.8540 C   0  0  0  0  0  0  0  0  0  0  0  0
    6.3020   -0.4500   18.5950 C   0  0  0  0  0  0  0  0  0  0  0  0
    5.8300    0.1240   17.4640 N   0  0  0  0  0  0  0  0  0  0  0  0
    4.8400    0.9750   17.6190 C   0  0  0  0  0  0  0  0  0  0  0  0
    4.2630    1.3290   18.8740 C   0  0  0  0  0  0  0  0  0  0  0  0
    3.2200    2.2850   18.9510 C   0  0  0  0  0  0  0  0  0  0  0  0
    2.7030    2.6420   20.1630 C   0  0  0  0  0  0  0  0  0  0  0  0
    3.2090    2.0710   21.3550 C   0  0  0  0  0  0  0  0  0  0  0  0
    4.2200    1.1400   21.3150 C   0  0  0  0  0  0  0  0  0  0  0  0
    4.7630    0.7370   20.0520 C   0  0  0  0  0  0  0  0  0  0  0  0
    4.6030    0.7200   22.2490 H   0  0  0  0  0  0  0  0  0  0  0  0
    2.7910    2.3840   22.3060 H   0  0  0  0  0  0  0  0  0  0  0  0
    1.9150    3.3860   20.2160 H   0  0  0  0  0  0  0  0  0  0  0  0
    2.8660    2.7270   18.0230 H   0  0  0  0  0  0  0  0  0  0  0  0
    4.4390    1.4330   16.7170 H   0  0  0  0  0  0  0  0  0  0  0  0
    7.1200   -1.1600   18.4760 H   0  0  0  0  0  0  0  0  0  0  0  0
    5.6980   -1.8550   21.6450 C   0  0  0  0  0  0  0  0  0  0  0  0
    4.6380   -2.3290   21.2950 O   0  0  0  0  0  0  0  0  0  0  0  0
    6.5160   -2.1820   22.9120 C   0  0  1  0  0  0  0  0  0  0  0  0
    6.5150   -3.7050   23.1670 C   0  0  0  0  0  0  0  0  0  0  0  0
    5.2280   -4.2000   23.6190 N   0  0  0  0  0  0  0  0  0  0  0  0
    4.6310   -5.3500   22.9680 C   0  0  0  0  0  0  0  0  0  0  0  0
    4.4000   -6.6580   23.7770 C   0  0  0  0  0  0  0  0  0  0  0  0
    2.8880   -6.5690   23.5560 N   0  3  0  0  0  0  0  0  0  0  0  0
    3.1030   -5.3270   22.7080 C   0  0  0  0  0  0  0  0  0  0  0  0
    2.7970   -5.4200   21.6770 H   0  0  0  0  0  0  0  0  0  0  0  0
    2.5840   -4.5060   23.1840 H   0  0  0  0  0  0  0  0  0  0  0  0
    2.3720   -7.3670   23.1330 H   0  0  0  0  0  0  0  0  0  0  0  0
    2.4840   -6.2550   24.4670 H   0  0  0  0  0  0  0  0  0  0  0  0
    4.6490   -6.6270   24.8350 H   0  0  0  0  0  0  0  0  0  0  0  0
    4.8150   -7.5430   23.3100 H   0  0  0  0  0  0  0  0  0  0  0  0
    5.1940   -5.5170   22.0460 H   0  0  0  0  0  0  0  0  0  0  0  0
    4.5650   -3.5940   24.6470 C   0  0  0  0  0  0  0  0  0  0  0  0
    3.6350   -4.1380   25.2420 O   0  0  0  0  0  0  0  0  0  0  0  0
    5.0220   -2.2060   24.9760 C   0  0  0  0  0  0  0  0  0  0  0  0
    4.5150   -1.6040   26.1270 C   0  0  0  0  0  0  0  0  0  0  0  0
    4.8210   -0.2940   26.4430 C   0  0  0  0  0  0  0  0  0  0  0  0
    5.6490    0.4150   25.5720 C   0  0  0  0  0  0  0  0  0  0  0  0
    6.0340    2.0740   25.9310 Cl  0  0  0  0  0  0  0  0  0  0  0  0
    6.1830   -0.1720   24.4390 C   0  0  0  0  0  0  0  0  0  0  0  0
    5.8990   -1.5100   24.1350 C   0  0  0  0  0  0  0  0  0  0  0  0
    6.8440    0.4210   23.8100 H   0  0  0  0  0  0  0  0  0  0  0  0
    4.4280    0.1820   27.3370 H   0  0  0  0  0  0  0  0  0  0  0  0
    3.8680   -2.1950   26.7650 H   0  0  0  0  0  0  0  0  0  0  0  0
    6.7440   -4.2130   22.2360 H   0  0  0  0  0  0  0  0  0  0  0  0
    7.3020   -3.9270   23.9040 H   0  0  0  0  0  0  0  0  0  0  0  0
    7.8390    0.4370   21.6990 H   0  0  0  0  0  0  0  0  0  0  0  0
    8.4470   -0.7770   20.5870 H   0  0  0  0  0  0  0  0  0  0  0  0
    8.3320   -1.0770   23.4430 H   0  0  0  0  0  0  0  0  0  0  0  0
    8.6700   -3.2580   21.3350 H   0  0  0  0  0  0  0  0  0  0  0  0
    9.9310   -2.1710   21.9340 H   0  0  0  0  0  0  0  0  0  0  0  0
    9.1830   -3.3360   23.0270 H   0  0  0  0  0  0  0  0  0  0  0  0
  1  2  1  0  0  0  0
  1 54  1  0  0  0  0
  1 55  1  0  0  0  0
  1 56  1  0  0  0  0
  2  3  1  0  0  0  0
  2 23  1  0  0  0  0
  2 53  1  1  0  0  0
  3  4  1  0  0  0  0
  3 51  1  0  0  0  0
  3 52  1  0  0  0  0
  4  5  1  0  0  0  0
  4 21  1  0  0  0  0
  5  6  2  0  0  0  0
  5 14  1  0  0  0  0
  6  7  1  0  0  0  0
  6 20  1  0  0  0  0
  7  8  2  0  0  0  0
  8  9  1  0  0  0  0
  8 19  1  0  0  0  0
  9 10  2  0  0  0  0
  9 14  1  0  0  0  0
 10 11  1  0  0  0  0
 10 18  1  0  0  0  0
 11 12  2  0  0  0  0
 11 17  1  0  0  0  0
 12 13  1  0  0  0  0
 12 16  1  0  0  0  0
 13 14  2  0  0  0  0
 13 15  1  0  0  0  0
 21 22  2  0  0  0  0
 23 21  1  6  0  0  0
 23 24  1  0  0  0  0
 23 45  1  0  0  0  0
 24 25  1  0  0  0  0
 24 49  1  0  0  0  0
 24 50  1  0  0  0  0
 25 26  1  0  0  0  0
 25 37  1  0  0  0  0
 26 27  1  0  0  0  0
 26 29  1  0  0  0  0
 26 36  1  0  0  0  0
 27 28  1  0  0  0  0
 27 34  1  0  0  0  0
 27 35  1  0  0  0  0
 28 29  1  0  0  0  0
 28 32  1  0  0  0  0
 28 33  1  0  0  0  0
 29 30  1  0  0  0  0
 29 31  1  0  0  0  0
 37 38  2  0  0  0  0
 37 39  1  0  0  0  0
 39 40  2  0  0  0  0
 39 45  1  0  0  0  0
 40 41  1  0  0  0  0
 40 48  1  0  0  0  0
 41 42  2  0  0  0  0
 41 47  1  0  0  0  0
 42 43  1  0  0  0  0
 42 44  1  0  0  0  0
 44 45  2  0  0  0  0
 44 46  1  0  0  0  0
M  CHG  1  28   1
M  END
>  <MODEL>
       3

$$$$
best_conformers_73.pdb
 OpenBabel02042510453D

 56 61  0  0  1  0  0  0  0  0999 V2000
    8.9870   -2.6610   22.1940 C   0  0  0  0  0  0  0  0  0  0  0  0
    7.9420   -1.6070   22.5670 C   0  0  1  0  0  0  0  0  0  0  0  0
    7.7320   -0.6180   21.3980 C   0  0  0  0  0  0  0  0  0  0  0  0
    6.3880   -0.8890   20.9450 N   0  0  0  0  0  0  0  0  0  0  0  0
    5.8130   -0.2110   19.8540 C   0  0  0  0  0  0  0  0  0  0  0  0
    6.3010   -0.4500   18.5960 C   0  0  0  0  0  0  0  0  0  0  0  0
    5.8280    0.1230   17.4640 N   0  0  0  0  0  0  0  0  0  0  0  0
    4.8390    0.9740   17.6200 C   0  0  0  0  0  0  0  0  0  0  0  0
    4.2630    1.3300   18.8740 C   0  0  0  0  0  0  0  0  0  0  0  0
    3.2200    2.2860   18.9530 C   0  0  0  0  0  0  0  0  0  0  0  0
    2.7030    2.6430   20.1640 C   0  0  0  0  0  0  0  0  0  0  0  0
    3.2090    2.0720   21.3560 C   0  0  0  0  0  0  0  0  0  0  0  0
    4.2200    1.1430   21.3160 C   0  0  0  0  0  0  0  0  0  0  0  0
    4.7630    0.7390   20.0550 C   0  0  0  0  0  0  0  0  0  0  0  0
    4.6020    0.7250   22.2520 H   0  0  0  0  0  0  0  0  0  0  0  0
    2.7910    2.3870   22.3070 H   0  0  0  0  0  0  0  0  0  0  0  0
    1.9150    3.3870   20.2170 H   0  0  0  0  0  0  0  0  0  0  0  0
    2.8660    2.7280   18.0240 H   0  0  0  0  0  0  0  0  0  0  0  0
    4.4380    1.4340   16.7180 H   0  0  0  0  0  0  0  0  0  0  0  0
    7.1160   -1.1630   18.4770 H   0  0  0  0  0  0  0  0  0  0  0  0
    5.6950   -1.8440   21.6520 C   0  0  0  0  0  0  0  0  0  0  0  0
    4.6330   -2.3160   21.3070 O   0  0  0  0  0  0  0  0  0  0  0  0
    6.5160   -2.1740   22.9160 C   0  0  1  0  0  0  0  0  0  0  0  0
    6.5120   -3.6960   23.1740 C   0  0  0  0  0  0  0  0  0  0  0  0
    5.2270   -4.1940   23.6320 N   0  0  0  0  0  0  0  0  0  0  0  0
    4.6250   -5.3420   22.9820 C   0  0  0  0  0  0  0  0  0  0  0  0
    3.0960   -5.3070   22.7290 C   0  0  0  0  0  0  0  0  0  0  0  0
    2.8800   -6.5600   23.5650 N   0  3  0  0  0  0  0  0  0  0  0  0
    4.3920   -6.6510   23.7890 C   0  0  0  0  0  0  0  0  0  0  0  0
    4.8120   -7.5360   23.3270 H   0  0  0  0  0  0  0  0  0  0  0  0
    4.6320   -6.6170   24.8510 H   0  0  0  0  0  0  0  0  0  0  0  0
    2.3630   -7.3560   23.1400 H   0  0  0  0  0  0  0  0  0  0  0  0
    2.4760   -6.2510   24.4790 H   0  0  0  0  0  0  0  0  0  0  0  0
    2.5860   -4.4940   23.2200 H   0  0  0  0  0  0  0  0  0  0  0  0
    2.7820   -5.3860   21.6970 H   0  0  0  0  0  0  0  0  0  0  0  0
    5.1910   -5.5090   22.0590 H   0  0  0  0  0  0  0  0  0  0  0  0
    4.5690   -3.5800   24.6590 C   0  0  0  0  0  0  0  0  0  0  0  0
    3.6380   -4.1180   25.2630 O   0  0  0  0  0  0  0  0  0  0  0  0
    5.0280   -2.1930   24.9830 C   0  0  0  0  0  0  0  0  0  0  0  0
    4.5230   -1.5860   26.1330 C   0  0  0  0  0  0  0  0  0  0  0  0
    4.8320   -0.2760   26.4430 C   0  0  0  0  0  0  0  0  0  0  0  0
    5.6590    0.4290   25.5710 C   0  0  0  0  0  0  0  0  0  0  0  0
    6.0440    2.0870   25.9210 Cl  0  0  0  0  0  0  0  0  0  0  0  0
    6.1930   -0.1610   24.4370 C   0  0  0  0  0  0  0  0  0  0  0  0
    5.9040   -1.4990   24.1390 C   0  0  0  0  0  0  0  0  0  0  0  0
    6.8540    0.4270   23.8060 H   0  0  0  0  0  0  0  0  0  0  0  0
    4.4370    0.2030   27.3350 H   0  0  0  0  0  0  0  0  0  0  0  0
    3.8760   -2.1770   26.7720 H   0  0  0  0  0  0  0  0  0  0  0  0
    6.7410   -4.2040   22.2430 H   0  0  0  0  0  0  0  0  0  0  0  0
    7.3000   -3.9160   23.9080 H   0  0  0  0  0  0  0  0  0  0  0  0
    7.8440    0.4370   21.6930 H   0  0  0  0  0  0  0  0  0  0  0  0
    8.4490   -0.7810   20.5830 H   0  0  0  0  0  0  0  0  0  0  0  0
    8.3360   -1.0740   23.4400 H   0  0  0  0  0  0  0  0  0  0  0  0
    9.9310   -2.1760   21.9330 H   0  0  0  0  0  0  0  0  0  0  0  0
    8.6670   -3.2600   21.3380 H   0  0  0  0  0  0  0  0  0  0  0  0
    9.1820   -3.3350   23.0300 H   0  0  0  0  0  0  0  0  0  0  0  0
  1  2  1  0  0  0  0
  1 54  1  0  0  0  0
  1 55  1  0  0  0  0
  1 56  1  0  0  0  0
  2  3  1  0  0  0  0
  2 23  1  0  0  0  0
  2 53  1  1  0  0  0
  3  4  1  0  0  0  0
  3 51  1  0  0  0  0
  3 52  1  0  0  0  0
  4  5  1  0  0  0  0
  4 21  1  0  0  0  0
  5  6  2  0  0  0  0
  5 14  1  0  0  0  0
  6  7  1  0  0  0  0
  6 20  1  0  0  0  0
  7  8  2  0  0  0  0
  8  9  1  0  0  0  0
  8 19  1  0  0  0  0
  9 10  2  0  0  0  0
  9 14  1  0  0  0  0
 10 11  1  0  0  0  0
 10 18  1  0  0  0  0
 11 12  2  0  0  0  0
 11 17  1  0  0  0  0
 12 13  1  0  0  0  0
 12 16  1  0  0  0  0
 13 14  2  0  0  0  0
 13 15  1  0  0  0  0
 21 22  2  0  0  0  0
 23 21  1  6  0  0  0
 23 24  1  0  0  0  0
 23 45  1  0  0  0  0
 24 25  1  0  0  0  0
 24 49  1  0  0  0  0
 24 50  1  0  0  0  0
 25 26  1  0  0  0  0
 25 37  1  0  0  0  0
 26 27  1  0  0  0  0
 26 29  1  0  0  0  0
 26 36  1  0  0  0  0
 27 28  1  0  0  0  0
 27 34  1  0  0  0  0
 27 35  1  0  0  0  0
 28 29  1  0  0  0  0
 28 32  1  0  0  0  0
 28 33  1  0  0  0  0
 29 30  1  0  0  0  0
 29 31  1  0  0  0  0
 37 38  2  0  0  0  0
 37 39  1  0  0  0  0
 39 40  2  0  0  0  0
 39 45  1  0  0  0  0
 40 41  1  0  0  0  0
 40 48  1  0  0  0  0
 41 42  2  0  0  0  0
 41 47  1  0  0  0  0
 42 43  1  0  0  0  0
 42 44  1  0  0  0  0
 44 45  2  0  0  0  0
 44 46  1  0  0  0  0
M  CHG  1  28   1
M  END
>  <MODEL>
       4

$$$$
best_conformers_73.pdb
 OpenBabel02042510453D

 56 61  0  0  1  0  0  0  0  0999 V2000
    8.9630   -2.6380   22.2130 C   0  0  0  0  0  0  0  0  0  0  0  0
    7.9500   -1.5540   22.6230 C   0  0  1  0  0  0  0  0  0  0  0  0
    7.7240   -0.5600   21.4540 C   0  0  0  0  0  0  0  0  0  0  0  0
    6.3960   -0.8720   20.9580 N   0  0  0  0  0  0  0  0  0  0  0  0
    5.8010   -0.2070   19.8540 C   0  0  0  0  0  0  0  0  0  0  0  0
    6.2560   -0.4590   18.5860 C   0  0  0  0  0  0  0  0  0  0  0  0
    5.7820    0.1320   17.4600 N   0  0  0  0  0  0  0  0  0  0  0  0
    4.8080    1.0000   17.6090 C   0  0  0  0  0  0  0  0  0  0  0  0
    4.2370    1.3610   18.8620 C   0  0  0  0  0  0  0  0  0  0  0  0
    3.1910    2.3210   18.9570 C   0  0  0  0  0  0  0  0  0  0  0  0
    2.6780    2.6690   20.1750 C   0  0  0  0  0  0  0  0  0  0  0  0
    3.1980    2.0830   21.3540 C   0  0  0  0  0  0  0  0  0  0  0  0
    4.2090    1.1580   21.2900 C   0  0  0  0  0  0  0  0  0  0  0  0
    4.7470    0.7530   20.0330 C   0  0  0  0  0  0  0  0  0  0  0  0
    4.5980    0.7230   22.2110 H   0  0  0  0  0  0  0  0  0  0  0  0
    2.7820    2.3690   22.3160 H   0  0  0  0  0  0  0  0  0  0  0  0
    1.8770    3.4000   20.2470 H   0  0  0  0  0  0  0  0  0  0  0  0
    2.8180    2.7750   18.0400 H   0  0  0  0  0  0  0  0  0  0  0  0
    4.4160    1.4600   16.7010 H   0  0  0  0  0  0  0  0  0  0  0  0
    7.0500   -1.1880   18.4340 H   0  0  0  0  0  0  0  0  0  0  0  0
    5.6800   -1.7360   21.7550 C   0  0  0  0  0  0  0  0  0  0  0  0
    4.5630   -2.1380   21.5020 O   0  0  0  0  0  0  0  0  0  0  0  0
    6.5200   -2.0670   23.0100 C   0  0  1  0  0  0  0  0  0  0  0  0
    6.4780   -3.5890   23.3040 C   0  0  0  0  0  0  0  0  0  0  0  0
    5.1690   -4.0540   23.7390 N   0  0  0  0  0  0  0  0  0  0  0  0
    4.5830   -5.2600   23.1640 C   0  0  0  0  0  0  0  0  0  0  0  0
    3.9720   -6.2800   24.1700 C   0  0  0  0  0  0  0  0  0  0  0  0
    4.9260   -7.3830   23.7120 N   0  3  0  0  0  0  0  0  0  0  0  0
    5.5670   -6.3940   22.7450 C   0  0  0  0  0  0  0  0  0  0  0  0
    6.6170   -6.2300   22.9800 H   0  0  0  0  0  0  0  0  0  0  0  0
    5.4880   -6.7420   21.7180 H   0  0  0  0  0  0  0  0  0  0  0  0
    5.5590   -7.7080   24.4610 H   0  0  0  0  0  0  0  0  0  0  0  0
    4.4940   -8.2100   23.2570 H   0  0  0  0  0  0  0  0  0  0  0  0
    4.1020   -6.0450   25.2200 H   0  0  0  0  0  0  0  0  0  0  0  0
    2.9320   -6.5370   23.9960 H   0  0  0  0  0  0  0  0  0  0  0  0
    3.8860   -4.9600   22.3670 H   0  0  0  0  0  0  0  0  0  0  0  0
    4.4010   -3.3300   24.6060 C   0  0  0  0  0  0  0  0  0  0  0  0
    3.3620   -3.7740   25.0870 O   0  0  0  0  0  0  0  0  0  0  0  0
    4.8930   -1.9530   24.9480 C   0  0  0  0  0  0  0  0  0  0  0  0
    4.2780   -1.2740   26.0030 C   0  0  0  0  0  0  0  0  0  0  0  0
    4.6470    0.0190   26.3220 C   0  0  0  0  0  0  0  0  0  0  0  0
    5.6310    0.6440   25.5580 C   0  0  0  0  0  0  0  0  0  0  0  0
    6.0640    2.2910   25.9250 Cl  0  0  0  0  0  0  0  0  0  0  0  0
    6.2580   -0.0130   24.5130 C   0  0  0  0  0  0  0  0  0  0  0  0
    5.9090   -1.3360   24.2060 C   0  0  0  0  0  0  0  0  0  0  0  0
    7.0020    0.5350   23.9430 H   0  0  0  0  0  0  0  0  0  0  0  0
    4.1730    0.5590   27.1350 H   0  0  0  0  0  0  0  0  0  0  0  0
    3.4940   -1.7900   26.5480 H   0  0  0  0  0  0  0  0  0  0  0  0
    7.2160   -3.8080   24.0900 H   0  0  0  0  0  0  0  0  0  0  0  0
    6.7330   -4.1250   22.3910 H   0  0  0  0  0  0  0  0  0  0  0  0
    7.7850    0.4900   21.7770 H   0  0  0  0  0  0  0  0  0  0  0  0
    8.4670   -0.6950   20.6580 H   0  0  0  0  0  0  0  0  0  0  0  0
    8.3830   -1.0390   23.4890 H   0  0  0  0  0  0  0  0  0  0  0  0
    8.6150   -3.2130   21.3490 H   0  0  0  0  0  0  0  0  0  0  0  0
    9.1630   -3.3380   23.0290 H   0  0  0  0  0  0  0  0  0  0  0  0
    9.9190   -2.1740   21.9420 H   0  0  0  0  0  0  0  0  0  0  0  0
  1  2  1  0  0  0  0
  1 54  1  0  0  0  0
  1 55  1  0  0  0  0
  1 56  1  0  0  0  0
  2  3  1  0  0  0  0
  2 23  1  0  0  0  0
  2 53  1  1  0  0  0
  3  4  1  0  0  0  0
  3 51  1  0  0  0  0
  3 52  1  0  0  0  0
  4  5  1  0  0  0  0
  4 21  1  0  0  0  0
  5  6  2  0  0  0  0
  5 14  1  0  0  0  0
  6  7  1  0  0  0  0
  6 20  1  0  0  0  0
  7  8  2  0  0  0  0
  8  9  1  0  0  0  0
  8 19  1  0  0  0  0
  9 10  2  0  0  0  0
  9 14  1  0  0  0  0
 10 11  1  0  0  0  0
 10 18  1  0  0  0  0
 11 12  2  0  0  0  0
 11 17  1  0  0  0  0
 12 13  1  0  0  0  0
 12 16  1  0  0  0  0
 13 14  2  0  0  0  0
 13 15  1  0  0  0  0
 21 22  2  0  0  0  0
 23 21  1  6  0  0  0
 23 24  1  0  0  0  0
 23 45  1  0  0  0  0
 24 25  1  0  0  0  0
 24 49  1  0  0  0  0
 24 50  1  0  0  0  0
 25 26  1  0  0  0  0
 25 37  1  0  0  0  0
 26 27  1  0  0  0  0
 26 29  1  0  0  0  0
 26 36  1  0  0  0  0
 27 28  1  0  0  0  0
 27 34  1  0  0  0  0
 27 35  1  0  0  0  0
 28 29  1  0  0  0  0
 28 32  1  0  0  0  0
 28 33  1  0  0  0  0
 29 30  1  0  0  0  0
 29 31  1  0  0  0  0
 37 38  2  0  0  0  0
 37 39  1  0  0  0  0
 39 40  2  0  0  0  0
 39 45  1  0  0  0  0
 40 41  1  0  0  0  0
 40 48  1  0  0  0  0
 41 42  2  0  0  0  0
 41 47  1  0  0  0  0
 42 43  1  0  0  0  0
 42 44  1  0  0  0  0
 44 45  2  0  0  0  0
 44 46  1  0  0  0  0
M  CHG  1  28   1
M  END
>  <MODEL>
       5

$$$$
best_conformers_73.pdb
 OpenBabel02042510453D

 56 61  0  0  1  0  0  0  0  0999 V2000
    8.9570   -2.6540   22.2030 C   0  0  0  0  0  0  0  0  0  0  0  0
    7.9500   -1.5660   22.6170 C   0  0  1  0  0  0  0  0  0  0  0  0
    7.7260   -0.5700   21.4500 C   0  0  0  0  0  0  0  0  0  0  0  0
    6.3940   -0.8740   20.9580 N   0  0  0  0  0  0  0  0  0  0  0  0
    5.8010   -0.2070   19.8540 C   0  0  0  0  0  0  0  0  0  0  0  0
    6.2560   -0.4590   18.5860 C   0  0  0  0  0  0  0  0  0  0  0  0
    5.7820    0.1320   17.4600 N   0  0  0  0  0  0  0  0  0  0  0  0
    4.8080    1.0000   17.6080 C   0  0  0  0  0  0  0  0  0  0  0  0
    4.2380    1.3610   18.8620 C   0  0  0  0  0  0  0  0  0  0  0  0
    3.1910    2.3210   18.9570 C   0  0  0  0  0  0  0  0  0  0  0  0
    2.6780    2.6690   20.1750 C   0  0  0  0  0  0  0  0  0  0  0  0
    3.1980    2.0830   21.3540 C   0  0  0  0  0  0  0  0  0  0  0  0
    4.2090    1.1580   21.2900 C   0  0  0  0  0  0  0  0  0  0  0  0
    4.7470    0.7530   20.0330 C   0  0  0  0  0  0  0  0  0  0  0  0
    4.5980    0.7230   22.2110 H   0  0  0  0  0  0  0  0  0  0  0  0
    2.7820    2.3690   22.3160 H   0  0  0  0  0  0  0  0  0  0  0  0
    1.8760    3.4000   20.2470 H   0  0  0  0  0  0  0  0  0  0  0  0
    2.8180    2.7750   18.0400 H   0  0  0  0  0  0  0  0  0  0  0  0
    4.4160    1.4600   16.7010 H   0  0  0  0  0  0  0  0  0  0  0  0
    7.0500   -1.1880   18.4330 H   0  0  0  0  0  0  0  0  0  0  0  0
    5.6780   -1.7370   21.7550 C   0  0  0  0  0  0  0  0  0  0  0  0
    4.5590   -2.1350   21.5030 O   0  0  0  0  0  0  0  0  0  0  0  0
    6.5180   -2.0740   23.0060 C   0  0  1  0  0  0  0  0  0  0  0  0
    6.4710   -3.5970   23.2970 C   0  0  0  0  0  0  0  0  0  0  0  0
    5.1600   -4.0570   23.7340 N   0  0  0  0  0  0  0  0  0  0  0  0
    4.5670   -5.2580   23.1570 C   0  0  0  0  0  0  0  0  0  0  0  0
    5.5440   -6.3960   22.7310 C   0  0  0  0  0  0  0  0  0  0  0  0
    4.9010   -7.3850   23.6970 N   0  3  0  0  0  0  0  0  0  0  0  0
    3.9530   -6.2790   24.1600 C   0  0  0  0  0  0  0  0  0  0  0  0
    2.9120   -6.5300   23.9880 H   0  0  0  0  0  0  0  0  0  0  0  0
    4.0880   -6.0470   25.2110 H   0  0  0  0  0  0  0  0  0  0  0  0
    4.4660   -8.2090   23.2410 H   0  0  0  0  0  0  0  0  0  0  0  0
    5.5340   -7.7160   24.4430 H   0  0  0  0  0  0  0  0  0  0  0  0
    5.4610   -6.7400   21.7030 H   0  0  0  0  0  0  0  0  0  0  0  0
    6.5960   -6.2380   22.9640 H   0  0  0  0  0  0  0  0  0  0  0  0
    3.8700   -4.9530   22.3620 H   0  0  0  0  0  0  0  0  0  0  0  0
    4.3980   -3.3320   24.6050 C   0  0  0  0  0  0  0  0  0  0  0  0
    3.3590   -3.7730   25.0880 O   0  0  0  0  0  0  0  0  0  0  0  0
    4.8970   -1.9580   24.9490 C   0  0  0  0  0  0  0  0  0  0  0  0
    4.2880   -1.2790   26.0080 C   0  0  0  0  0  0  0  0  0  0  0  0
    4.6640    0.0110   26.3280 C   0  0  0  0  0  0  0  0  0  0  0  0
    5.6480    0.6340   25.5630 C   0  0  0  0  0  0  0  0  0  0  0  0
    6.0890    2.2790   25.9320 Cl  0  0  0  0  0  0  0  0  0  0  0  0
    6.2690   -0.0230   24.5140 C   0  0  0  0  0  0  0  0  0  0  0  0
    5.9140   -1.3440   24.2050 C   0  0  0  0  0  0  0  0  0  0  0  0
    7.0140    0.5240   23.9430 H   0  0  0  0  0  0  0  0  0  0  0  0
    4.1950    0.5510   27.1440 H   0  0  0  0  0  0  0  0  0  0  0  0
    3.5040   -1.7930   26.5540 H   0  0  0  0  0  0  0  0  0  0  0  0
    7.2090   -3.8210   24.0800 H   0  0  0  0  0  0  0  0  0  0  0  0
    6.7200   -4.1310   22.3810 H   0  0  0  0  0  0  0  0  0  0  0  0
    7.7930    0.4800   21.7750 H   0  0  0  0  0  0  0  0  0  0  0  0
    8.4660   -0.7070   20.6520 H   0  0  0  0  0  0  0  0  0  0  0  0
    8.3870   -1.0550   23.4830 H   0  0  0  0  0  0  0  0  0  0  0  0
    8.6050   -3.2260   21.3390 H   0  0  0  0  0  0  0  0  0  0  0  0
    9.1560   -3.3560   23.0180 H   0  0  0  0  0  0  0  0  0  0  0  0
    9.9140   -2.1940   21.9300 H   0  0  0  0  0  0  0  0  0  0  0  0
  1  2  1  0  0  0  0
  1 54  1  0  0  0  0
  1 55  1  0  0  0  0
  1 56  1  0  0  0  0
  2  3  1  0  0  0  0
  2 23  1  0  0  0  0
  2 53  1  1  0  0  0
  3  4  1  0  0  0  0
  3 51  1  0  0  0  0
  3 52  1  0  0  0  0
  4  5  1  0  0  0  0
  4 21  1  0  0  0  0
  5  6  2  0  0  0  0
  5 14  1  0  0  0  0
  6  7  1  0  0  0  0
  6 20  1  0  0  0  0
  7  8  2  0  0  0  0
  8  9  1  0  0  0  0
  8 19  1  0  0  0  0
  9 10  2  0  0  0  0
  9 14  1  0  0  0  0
 10 11  1  0  0  0  0
 10 18  1  0  0  0  0
 11 12  2  0  0  0  0
 11 17  1  0  0  0  0
 12 13  1  0  0  0  0
 12 16  1  0  0  0  0
 13 14  2  0  0  0  0
 13 15  1  0  0  0  0
 21 22  2  0  0  0  0
 23 21  1  6  0  0  0
 23 24  1  0  0  0  0
 23 45  1  0  0  0  0
 24 25  1  0  0  0  0
 24 49  1  0  0  0  0
 24 50  1  0  0  0  0
 25 26  1  0  0  0  0
 25 37  1  0  0  0  0
 26 27  1  0  0  0  0
 26 29  1  0  0  0  0
 26 36  1  0  0  0  0
 27 28  1  0  0  0  0
 27 34  1  0  0  0  0
 27 35  1  0  0  0  0
 28 29  1  0  0  0  0
 28 32  1  0  0  0  0
 28 33  1  0  0  0  0
 29 30  1  0  0  0  0
 29 31  1  0  0  0  0
 37 38  2  0  0  0  0
 37 39  1  0  0  0  0
 39 40  2  0  0  0  0
 39 45  1  0  0  0  0
 40 41  1  0  0  0  0
 40 48  1  0  0  0  0
 41 42  2  0  0  0  0
 41 47  1  0  0  0  0
 42 43  1  0  0  0  0
 42 44  1  0  0  0  0
 44 45  2  0  0  0  0
 44 46  1  0  0  0  0
M  CHG  1  28   1
M  END
>  <MODEL>
       6

$$$$
