best_conformers_35.pdb
 OpenBabel02042510453D

 51 54  0  0  0  0  0  0  0  0999 V2000
    2.8750    5.3170   22.4360 N   0  0  0  0  0  0  0  0  0  0  0  0
    4.0180    5.3290   22.6210 C   0  0  0  0  0  0  0  0  0  0  0  0
    5.4640    5.3820   22.8870 C   0  0  0  0  0  0  0  0  0  0  0  0
    6.2090    4.0970   22.5240 C   0  0  0  0  0  0  0  0  0  0  0  0
    6.2590    3.0410   23.4430 C   0  0  0  0  0  0  0  0  0  0  0  0
    6.9740    1.8840   23.1070 C   0  0  0  0  0  0  0  0  0  0  0  0
    7.6110    1.7490   21.9080 C   0  0  0  0  0  0  0  0  0  0  0  0
    8.4450    0.4580   21.9280 N   0  0  0  0  0  0  0  0  0  0  0  0
    8.4510    0.4530   21.9410 C   0  0  0  0  0  0  0  0  0  0  0  0
   10.7830    0.4070   21.8720 C   0  0  0  0  0  0  0  0  0  0  0  0
   11.4800   -0.5710   22.5420 C   0  0  0  0  0  0  0  0  0  0  0  0
   12.2340   -0.2360   23.6640 C   0  0  0  0  0  0  0  0  0  0  0  0
   12.2800    1.0810   24.1030 C   0  0  0  0  0  0  0  0  0  0  0  0
   11.4700    2.0290   23.4810 C   0  0  0  0  0  0  0  0  0  0  0  0
   11.4990    3.6930   24.0030 Cl  0  0  0  0  0  0  0  0  0  0  0  0
   10.5770    1.6380   22.4920 C   0  0  0  0  0  0  0  0  0  0  0  0
    9.7590    2.2780   22.2290 H   0  0  0  0  0  0  0  0  0  0  0  0
   12.9090    1.3540   24.9350 H   0  0  0  0  0  0  0  0  0  0  0  0
   12.8130   -0.9980   24.1770 H   0  0  0  0  0  0  0  0  0  0  0  0
   11.4930   -1.5760   22.1400 H   0  0  0  0  0  0  0  0  0  0  0  0
    8.6440    3.0870   20.5540 H   0  0  0  0  0  0  0  0  0  0  0  0
   10.3450    0.1590   20.9300 H   0  0  0  0  0  0  0  0  0  0  0  0
    8.0080   -0.6220   21.0020 C   0  0  0  0  0  0  0  0  0  0  0  0
    8.7160   -1.3610   20.3970 O   0  0  0  0  0  0  0  0  0  0  0  0
    6.4990   -0.8550   21.0560 C   0  0  0  0  0  0  0  0  0  0  0  0
    5.8330   -0.1790   19.8690 C   0  0  0  0  0  0  0  0  0  0  0  0
    6.2710   -0.4590   18.5930 C   0  0  0  0  0  0  0  0  0  0  0  0
    5.7960    0.0970   17.4520 N   0  0  0  0  0  0  0  0  0  0  0  0
    4.8300    0.9780   17.5830 C   0  0  0  0  0  0  0  0  0  0  0  0
    4.2640    1.3640   18.8280 C   0  0  0  0  0  0  0  0  0  0  0  0
    3.2160    2.3150   18.9140 C   0  0  0  0  0  0  0  0  0  0  0  0
    2.6770    2.6540   20.1250 C   0  0  0  0  0  0  0  0  0  0  0  0
    3.1660    2.0590   21.3060 C   0  0  0  0  0  0  0  0  0  0  0  0
    4.1890    1.1460   21.2500 C   0  0  0  0  0  0  0  0  0  0  0  0
    4.7660    0.7640   20.0100 C   0  0  0  0  0  0  0  0  0  0  0  0
    4.5560    0.7160   22.1770 H   0  0  0  0  0  0  0  0  0  0  0  0
    2.7380    2.3310   22.2680 H   0  0  0  0  0  0  0  0  0  0  0  0
    1.8780    3.3880   20.1800 H   0  0  0  0  0  0  0  0  0  0  0  0
    2.8560    2.7710   17.9940 H   0  0  0  0  0  0  0  0  0  0  0  0
    4.4460    1.4330   16.6690 H   0  0  0  0  0  0  0  0  0  0  0  0
    7.0670   -1.1830   18.4390 H   0  0  0  0  0  0  0  0  0  0  0  0
    6.2120   -0.4370   22.0200 H   0  0  0  0  0  0  0  0  0  0  0  0
    6.2870   -1.9290   21.0520 H   0  0  0  0  0  0  0  0  0  0  0  0
    7.6080    2.8330   20.8520 C   0  0  0  0  0  0  0  0  0  0  0  0
    6.8350    4.0060   21.3080 C   0  0  0  0  0  0  0  0  0  0  0  0
    6.7760    4.8530   20.6380 H   0  0  0  0  0  0  0  0  0  0  0  0
    7.1890    2.3360   19.9640 H   0  0  0  0  0  0  0  0  0  0  0  0
    7.0500    1.0050   23.7340 H   0  0  0  0  0  0  0  0  0  0  0  0
    5.7580    3.1200   24.4010 H   0  0  0  0  0  0  0  0  0  0  0  0
    5.8820    6.2260   22.3270 H   0  0  0  0  0  0  0  0  0  0  0  0
    5.5930    5.6080   23.9500 H   0  0  0  0  0  0  0  0  0  0  0  0
  1  2  3  0  0  0  0
  2  3  1  0  0  0  0
  3  4  1  0  0  0  0
  3 50  1  0  0  0  0
  3 51  1  0  0  0  0
  4  5  2  0  0  0  0
  4 45  1  0  0  0  0
  5  6  1  0  0  0  0
  5 49  1  0  0  0  0
  6  7  2  0  0  0  0
  6 48  1  0  0  0  0
  7  8  1  0  0  0  0
  7 44  1  0  0  0  0
  8  9  1  0  0  0  0
  8 23  1  0  0  0  0
  9 10  1  0  0  0  0
  9 21  1  0  0  0  0
  9 22  1  0  0  0  0
 10 11  2  0  0  0  0
 10 16  1  0  0  0  0
 11 12  1  0  0  0  0
 11 20  1  0  0  0  0
 12 13  2  0  0  0  0
 12 19  1  0  0  0  0
 13 14  1  0  0  0  0
 13 18  1  0  0  0  0
 14 15  1  0  0  0  0
 14 16  2  0  0  0  0
 16 17  1  0  0  0  0
 23 24  2  0  0  0  0
 23 25  1  0  0  0  0
 25 26  1  0  0  0  0
 25 42  1  0  0  0  0
 25 43  1  0  0  0  0
 26 27  2  0  0  0  0
 26 35  1  0  0  0  0
 27 28  1  0  0  0  0
 27 41  1  0  0  0  0
 28 29  2  0  0  0  0
 29 30  1  0  0  0  0
 29 40  1  0  0  0  0
 30 31  2  0  0  0  0
 30 35  1  0  0  0  0
 31 32  1  0  0  0  0
 31 39  1  0  0  0  0
 32 33  2  0  0  0  0
 32 38  1  0  0  0  0
 33 34  1  0  0  0  0
 33 37  1  0  0  0  0
 34 35  2  0  0  0  0
 34 36  1  0  0  0  0
 44 45  2  0  0  0  0
 44 47  1  0  0  0  0
 45 46  1  0  0  0  0
M  END
>  <MODEL>
       1

$$$$
