best_conformers_62.pdb
 OpenBabel02042510453D

 70 76  0  0  1  0  0  0  0  0999 V2000
    7.2280   -3.6410   23.1800 C   0  0  0  0  0  0  0  0  0  0  0  0
    7.5070   -2.4340   22.2900 C   0  0  1  0  0  0  0  0  0  0  0  0
    6.3300   -2.1350   21.3500 C   0  0  0  0  0  0  0  0  0  0  0  0
    6.5070   -0.7370   21.0290 N   0  0  0  0  0  0  0  0  0  0  0  0
    5.8960   -0.1230   19.9020 C   0  0  0  0  0  0  0  0  0  0  0  0
    6.3270   -0.4410   18.6370 C   0  0  0  0  0  0  0  0  0  0  0  0
    5.8390    0.0970   17.4900 N   0  0  0  0  0  0  0  0  0  0  0  0
    4.8580    0.9630   17.6080 C   0  0  0  0  0  0  0  0  0  0  0  0
    4.2820    1.3520   18.8510 C   0  0  0  0  0  0  0  0  0  0  0  0
    3.2130    2.2880   18.9160 C   0  0  0  0  0  0  0  0  0  0  0  0
    2.6490    2.6100   20.1210 C   0  0  0  0  0  0  0  0  0  0  0  0
    3.1210    2.0130   21.3100 C   0  0  0  0  0  0  0  0  0  0  0  0
    4.1670    1.1220   21.2730 C   0  0  0  0  0  0  0  0  0  0  0  0
    4.7920    0.7830   20.0410 C   0  0  0  0  0  0  0  0  0  0  0  0
    4.5240    0.6730   22.1920 H   0  0  0  0  0  0  0  0  0  0  0  0
    2.6610    2.2690   22.2600 H   0  0  0  0  0  0  0  0  0  0  0  0
    1.8380    3.3320   20.1720 H   0  0  0  0  0  0  0  0  0  0  0  0
    2.8650    2.7450   17.9930 H   0  0  0  0  0  0  0  0  0  0  0  0
    4.4630    1.3950   16.6900 H   0  0  0  0  0  0  0  0  0  0  0  0
    7.1360   -1.1600   18.5100 H   0  0  0  0  0  0  0  0  0  0  0  0
    7.3210   -0.0650   21.9230 C   0  0  0  0  0  0  0  0  0  0  0  0
    7.5500    1.1230   21.8620 O   0  0  0  0  0  0  0  0  0  0  0  0
    7.8190   -1.0650   22.9970 C   0  0  1  0  0  0  0  0  0  0  0  0
    6.9710   -0.8030   24.2770 C   0  0  0  0  0  0  0  0  0  0  0  0
    7.4710   -1.4810   25.4640 N   0  0  0  0  0  0  0  0  0  0  0  0
    6.5820   -1.9100   26.5410 C   0  0  0  0  0  0  0  0  0  0  0  0
    6.3770   -0.8680   27.6510 C   0  0  0  0  0  0  0  0  0  0  0  0
    5.4280   -1.4270   28.6880 N   0  3  2  0  0  0  0  0  0  0  0  0
    4.5820   -0.4050   29.3920 C   0  0  0  0  0  0  0  0  0  0  0  0
    5.3940    0.0070   30.6190 C   0  0  0  0  0  0  0  0  0  0  0  0
    6.1670   -1.2380   31.0600 C   0  0  0  0  0  0  0  0  0  0  0  0
    5.7990   -1.9410   32.3860 C   0  0  0  0  0  0  0  0  0  0  0  0
    6.8700   -1.3030   33.0890 O   0  0  0  0  0  0  0  0  0  0  0  0
    7.4520   -0.8820   31.8470 C   0  0  0  0  0  0  0  0  0  0  0  0
    8.3370   -1.4740   31.5970 H   0  0  0  0  0  0  0  0  0  0  0  0
    7.7370    0.1810   31.8730 H   0  0  0  0  0  0  0  0  0  0  0  0
    4.8150   -1.7820   32.8540 H   0  0  0  0  0  0  0  0  0  0  0  0
    5.9800   -3.0210   32.3070 H   0  0  0  0  0  0  0  0  0  0  0  0
    6.1600   -2.1630   29.8250 C   0  0  0  0  0  0  0  0  0  0  0  0
    7.1490   -2.4410   29.4540 H   0  0  0  0  0  0  0  0  0  0  0  0
    5.5930   -3.0760   30.0320 H   0  0  0  0  0  0  0  0  0  0  0  0
    4.7810    0.4230   31.4230 H   0  0  0  0  0  0  0  0  0  0  0  0
    6.1230    0.7730   30.3160 H   0  0  0  0  0  0  0  0  0  0  0  0
    3.6350   -0.8800   29.6510 H   0  0  0  0  0  0  0  0  0  0  0  0
    4.3780    0.4230   28.7110 H   0  0  0  0  0  0  0  0  0  0  0  0
    4.8230   -2.0810   28.1700 H   0  0  0  0  0  0  0  0  0  0  0  0
    7.3220   -0.6350   28.1470 H   0  0  0  0  0  0  0  0  0  0  0  0
    5.9610    0.0620   27.2460 H   0  0  0  0  0  0  0  0  0  0  0  0
    7.0380   -2.8010   26.9870 H   0  0  0  0  0  0  0  0  0  0  0  0
    5.6020   -2.1930   26.1300 H   0  0  0  0  0  0  0  0  0  0  0  0
    8.8100   -1.5310   25.7350 C   0  0  0  0  0  0  0  0  0  0  0  0
    9.2390   -1.9240   26.8120 O   0  0  0  0  0  0  0  0  0  0  0  0
    9.7390   -1.1020   24.6510 C   0  0  0  0  0  0  0  0  0  0  0  0
   11.0840   -0.9750   24.9940 C   0  0  0  0  0  0  0  0  0  0  0  0
   12.0100   -0.5880   24.0530 C   0  0  0  0  0  0  0  0  0  0  0  0
   11.5750   -0.3400   22.7550 C   0  0  0  0  0  0  0  0  0  0  0  0
   12.7980    0.1550   21.6220 Cl  0  0  0  0  0  0  0  0  0  0  0  0
   10.2440   -0.4820   22.3880 C   0  0  0  0  0  0  0  0  0  0  0  0
    9.2910   -0.8660   23.3460 C   0  0  0  0  0  0  0  0  0  0  0  0
    9.9430   -0.2720   21.3660 H   0  0  0  0  0  0  0  0  0  0  0  0
   13.0600   -0.4700   24.2990 H   0  0  0  0  0  0  0  0  0  0  0  0
   11.3770   -1.1810   26.0150 H   0  0  0  0  0  0  0  0  0  0  0  0
    5.9350   -1.1160   24.0990 H   0  0  0  0  0  0  0  0  0  0  0  0
    6.9720    0.2840   24.4310 H   0  0  0  0  0  0  0  0  0  0  0  0
    5.3640   -2.3030   21.8560 H   0  0  0  0  0  0  0  0  0  0  0  0
    6.3340   -2.7420   20.4390 H   0  0  0  0  0  0  0  0  0  0  0  0
    8.3870   -2.6380   21.6640 H   0  0  0  0  0  0  0  0  0  0  0  0
    7.0770   -4.5380   22.5680 H   0  0  0  0  0  0  0  0  0  0  0  0
    8.0520   -3.8300   23.8730 H   0  0  0  0  0  0  0  0  0  0  0  0
    6.3140   -3.4940   23.7690 H   0  0  0  0  0  0  0  0  0  0  0  0
  1  2  1  0  0  0  0
  1 68  1  0  0  0  0
  1 69  1  0  0  0  0
  1 70  1  0  0  0  0
  2  3  1  0  0  0  0
  2 23  1  0  0  0  0
  2 67  1  6  0  0  0
  3  4  1  0  0  0  0
  3 65  1  0  0  0  0
  3 66  1  0  0  0  0
  4  5  1  0  0  0  0
  4 21  1  0  0  0  0
  5  6  2  0  0  0  0
  5 14  1  0  0  0  0
  6  7  1  0  0  0  0
  6 20  1  0  0  0  0
  7  8  2  0  0  0  0
  8  9  1  0  0  0  0
  8 19  1  0  0  0  0
  9 10  2  0  0  0  0
  9 14  1  0  0  0  0
 10 11  1  0  0  0  0
 10 18  1  0  0  0  0
 11 12  2  0  0  0  0
 11 17  1  0  0  0  0
 12 13  1  0  0  0  0
 12 16  1  0  0  0  0
 13 14  2  0  0  0  0
 13 15  1  0  0  0  0
 21 22  2  0  0  0  0
 23 21  1  6  0  0  0
 23 24  1  0  0  0  0
 23 59  1  0  0  0  0
 24 25  1  0  0  0  0
 24 63  1  0  0  0  0
 24 64  1  0  0  0  0
 25 26  1  0  0  0  0
 25 51  1  0  0  0  0
 26 27  1  0  0  0  0
 26 49  1  0  0  0  0
 26 50  1  0  0  0  0
 27 28  1  0  0  0  0
 27 47  1  0  0  0  0
 27 48  1  0  0  0  0
 28 29  1  0  0  0  0
 28 39  1  0  0  0  0
 28 46  1  6  0  0  0
 29 30  1  0  0  0  0
 29 44  1  0  0  0  0
 29 45  1  0  0  0  0
 30 31  1  0  0  0  0
 30 42  1  0  0  0  0
 30 43  1  0  0  0  0
 31 32  1  0  0  0  0
 31 34  1  0  0  0  0
 31 39  1  0  0  0  0
 32 33  1  0  0  0  0
 32 37  1  0  0  0  0
 32 38  1  0  0  0  0
 33 34  1  0  0  0  0
 34 35  1  0  0  0  0
 34 36  1  0  0  0  0
 39 40  1  0  0  0  0
 39 41  1  0  0  0  0
 51 52  2  0  0  0  0
 51 53  1  0  0  0  0
 53 54  2  0  0  0  0
 53 59  1  0  0  0  0
 54 55  1  0  0  0  0
 54 62  1  0  0  0  0
 55 56  2  0  0  0  0
 55 61  1  0  0  0  0
 56 57  1  0  0  0  0
 56 58  1  0  0  0  0
 58 59  2  0  0  0  0
 58 60  1  0  0  0  0
M  CHG  1  28   1
M  END
>  <MODEL>
       1

$$$$
best_conformers_62.pdb
 OpenBabel02042510453D

 70 76  0  0  1  0  0  0  0  0999 V2000
    7.2150   -3.7160   23.0760 C   0  0  0  0  0  0  0  0  0  0  0  0
    7.5000   -2.5110   22.1930 C   0  0  1  0  0  0  0  0  0  0  0  0
    6.3280   -2.1980   21.2520 C   0  0  0  0  0  0  0  0  0  0  0  0
    6.4840   -0.7830   20.9920 N   0  0  0  0  0  0  0  0  0  0  0  0
    5.8650   -0.1450   19.8890 C   0  0  0  0  0  0  0  0  0  0  0  0
    6.2870   -0.4510   18.6200 C   0  0  0  0  0  0  0  0  0  0  0  0
    5.8070    0.1050   17.4800 N   0  0  0  0  0  0  0  0  0  0  0  0
    4.8360    0.9780   17.6180 C   0  0  0  0  0  0  0  0  0  0  0  0
    4.2710    1.3540   18.8680 C   0  0  0  0  0  0  0  0  0  0  0  0
    3.2150    2.3000   18.9450 C   0  0  0  0  0  0  0  0  0  0  0  0
    2.6630    2.6230   20.1520 C   0  0  0  0  0  0  0  0  0  0  0  0
    3.1350    2.0170   21.3390 C   0  0  0  0  0  0  0  0  0  0  0  0
    4.1650    1.1110   21.2940 C   0  0  0  0  0  0  0  0  0  0  0  0
    4.7750    0.7690   20.0540 C   0  0  0  0  0  0  0  0  0  0  0  0
    4.5260    0.6610   22.2140 H   0  0  0  0  0  0  0  0  0  0  0  0
    2.6790    2.2770   22.2890 H   0  0  0  0  0  0  0  0  0  0  0  0
    1.8550    3.3470   20.2070 H   0  0  0  0  0  0  0  0  0  0  0  0
    2.8630    2.7550   18.0210 H   0  0  0  0  0  0  0  0  0  0  0  0
    4.4380    1.4310   16.7090 H   0  0  0  0  0  0  0  0  0  0  0  0
    7.0900   -1.1770   18.4960 H   0  0  0  0  0  0  0  0  0  0  0  0
    7.2730   -0.1270   21.9160 C   0  0  0  0  0  0  0  0  0  0  0  0
    7.4450    1.0760   21.9390 O   0  0  0  0  0  0  0  0  0  0  0  0
    7.8150   -1.1540   22.9290 C   0  0  1  0  0  0  0  0  0  0  0  0
    7.0010   -0.9380   24.2430 C   0  0  0  0  0  0  0  0  0  0  0  0
    7.5520   -1.6810   25.3740 N   0  0  0  0  0  0  0  0  0  0  0  0
    6.7050   -2.1990   26.4430 C   0  0  0  0  0  0  0  0  0  0  0  0
    6.4000   -1.1310   27.4890 C   0  0  0  0  0  0  0  0  0  0  0  0
    5.5020   -1.5960   28.5730 N   0  3  2  0  0  0  0  0  0  0  0  0
    4.9720   -0.4400   29.3560 C   0  0  0  0  0  0  0  0  0  0  0  0
    4.4130   -1.0400   30.6320 C   0  0  0  0  0  0  0  0  0  0  0  0
    5.1910   -2.3410   30.8900 C   0  0  0  0  0  0  0  0  0  0  0  0
    4.3140   -3.5010   31.4050 C   0  0  0  0  0  0  0  0  0  0  0  0
    4.9510   -3.5020   32.6880 O   0  0  0  0  0  0  0  0  0  0  0  0
    5.8390   -2.4500   32.2900 C   0  0  0  0  0  0  0  0  0  0  0  0
    6.8810   -2.7960   32.3210 H   0  0  0  0  0  0  0  0  0  0  0  0
    5.7340   -1.5470   32.9170 H   0  0  0  0  0  0  0  0  0  0  0  0
    4.4070   -4.4690   30.8910 H   0  0  0  0  0  0  0  0  0  0  0  0
    3.2570   -3.2240   31.4800 H   0  0  0  0  0  0  0  0  0  0  0  0
    6.0480   -2.5650   29.6280 C   0  0  0  0  0  0  0  0  0  0  0  0
    5.9600   -3.5830   29.2390 H   0  0  0  0  0  0  0  0  0  0  0  0
    7.1100   -2.3400   29.7900 H   0  0  0  0  0  0  0  0  0  0  0  0
    4.5100   -0.3290   31.4560 H   0  0  0  0  0  0  0  0  0  0  0  0
    3.3470   -1.2550   30.5100 H   0  0  0  0  0  0  0  0  0  0  0  0
    5.8010    0.2410   29.5660 H   0  0  0  0  0  0  0  0  0  0  0  0
    4.2240    0.0910   28.7670 H   0  0  0  0  0  0  0  0  0  0  0  0
    4.6920   -2.0690   28.1170 H   0  0  0  0  0  0  0  0  0  0  0  0
    5.9260   -0.2700   26.9960 H   0  0  0  0  0  0  0  0  0  0  0  0
    7.3400   -0.7780   27.9300 H   0  0  0  0  0  0  0  0  0  0  0  0
    7.2490   -3.0290   26.9060 H   0  0  0  0  0  0  0  0  0  0  0  0
    5.7760   -2.5910   26.0090 H   0  0  0  0  0  0  0  0  0  0  0  0
    8.8860   -1.6250   25.6480 C   0  0  0  0  0  0  0  0  0  0  0  0
    9.3580   -1.9420   26.7370 O   0  0  0  0  0  0  0  0  0  0  0  0
    9.7730   -1.1890   24.5450 C   0  0  0  0  0  0  0  0  0  0  0  0
   11.1210   -1.0850   24.8750 C   0  0  0  0  0  0  0  0  0  0  0  0
   12.0350   -0.7170   23.9180 C   0  0  0  0  0  0  0  0  0  0  0  0
   11.5850   -0.4600   22.6290 C   0  0  0  0  0  0  0  0  0  0  0  0
   12.7960    0.0110   21.4750 Cl  0  0  0  0  0  0  0  0  0  0  0  0
   10.2450   -0.5760   22.2810 C   0  0  0  0  0  0  0  0  0  0  0  0
    9.2970   -0.9510   23.2510 C   0  0  0  0  0  0  0  0  0  0  0  0
    9.9530   -0.3610   21.2600 H   0  0  0  0  0  0  0  0  0  0  0  0
   13.0900   -0.6270   24.1420 H   0  0  0  0  0  0  0  0  0  0  0  0
   11.4170   -1.3090   25.8950 H   0  0  0  0  0  0  0  0  0  0  0  0
    5.9550   -1.2340   24.0900 H   0  0  0  0  0  0  0  0  0  0  0  0
    6.9970    0.1480   24.4350 H   0  0  0  0  0  0  0  0  0  0  0  0
    5.3540   -2.4180   21.7250 H   0  0  0  0  0  0  0  0  0  0  0  0
    6.3580   -2.7640   20.3160 H   0  0  0  0  0  0  0  0  0  0  0  0
    8.3790   -2.7230   21.5690 H   0  0  0  0  0  0  0  0  0  0  0  0
    8.0260   -3.8760   23.7910 H   0  0  0  0  0  0  0  0  0  0  0  0
    6.2910   -3.5550   23.6450 H   0  0  0  0  0  0  0  0  0  0  0  0
    7.0880   -4.6190   22.4690 H   0  0  0  0  0  0  0  0  0  0  0  0
  1  2  1  0  0  0  0
  1 68  1  0  0  0  0
  1 69  1  0  0  0  0
  1 70  1  0  0  0  0
  2  3  1  0  0  0  0
  2 23  1  0  0  0  0
  2 67  1  6  0  0  0
  3  4  1  0  0  0  0
  3 65  1  0  0  0  0
  3 66  1  0  0  0  0
  4  5  1  0  0  0  0
  4 21  1  0  0  0  0
  5  6  2  0  0  0  0
  5 14  1  0  0  0  0
  6  7  1  0  0  0  0
  6 20  1  0  0  0  0
  7  8  2  0  0  0  0
  8  9  1  0  0  0  0
  8 19  1  0  0  0  0
  9 10  2  0  0  0  0
  9 14  1  0  0  0  0
 10 11  1  0  0  0  0
 10 18  1  0  0  0  0
 11 12  2  0  0  0  0
 11 17  1  0  0  0  0
 12 13  1  0  0  0  0
 12 16  1  0  0  0  0
 13 14  2  0  0  0  0
 13 15  1  0  0  0  0
 21 22  2  0  0  0  0
 23 21  1  6  0  0  0
 23 24  1  0  0  0  0
 23 59  1  0  0  0  0
 24 25  1  0  0  0  0
 24 63  1  0  0  0  0
 24 64  1  0  0  0  0
 25 26  1  0  0  0  0
 25 51  1  0  0  0  0
 26 27  1  0  0  0  0
 26 49  1  0  0  0  0
 26 50  1  0  0  0  0
 27 28  1  0  0  0  0
 27 47  1  0  0  0  0
 27 48  1  0  0  0  0
 28 29  1  0  0  0  0
 28 39  1  0  0  0  0
 28 46  1  6  0  0  0
 29 30  1  0  0  0  0
 29 44  1  0  0  0  0
 29 45  1  0  0  0  0
 30 31  1  0  0  0  0
 30 42  1  0  0  0  0
 30 43  1  0  0  0  0
 31 32  1  0  0  0  0
 31 34  1  0  0  0  0
 31 39  1  0  0  0  0
 32 33  1  0  0  0  0
 32 37  1  0  0  0  0
 32 38  1  0  0  0  0
 33 34  1  0  0  0  0
 34 35  1  0  0  0  0
 34 36  1  0  0  0  0
 39 40  1  0  0  0  0
 39 41  1  0  0  0  0
 51 52  2  0  0  0  0
 51 53  1  0  0  0  0
 53 54  2  0  0  0  0
 53 59  1  0  0  0  0
 54 55  1  0  0  0  0
 54 62  1  0  0  0  0
 55 56  2  0  0  0  0
 55 61  1  0  0  0  0
 56 57  1  0  0  0  0
 56 58  1  0  0  0  0
 58 59  2  0  0  0  0
 58 60  1  0  0  0  0
M  CHG  1  28   1
M  END
>  <MODEL>
       2

$$$$
best_conformers_62.pdb
 OpenBabel02042510453D

 70 76  0  0  1  0  0  0  0  0999 V2000
    7.0990   -3.6390   23.1910 C   0  0  0  0  0  0  0  0  0  0  0  0
    7.4360   -2.4500   22.2940 C   0  0  1  0  0  0  0  0  0  0  0  0
    6.3460   -2.1830   21.2460 C   0  0  0  0  0  0  0  0  0  0  0  0
    6.4600   -0.7690   20.9900 N   0  0  0  0  0  0  0  0  0  0  0  0
    5.8470   -0.1470   19.8810 C   0  0  0  0  0  0  0  0  0  0  0  0
    6.2740   -0.4570   18.6130 C   0  0  0  0  0  0  0  0  0  0  0  0
    5.7970    0.1080   17.4780 N   0  0  0  0  0  0  0  0  0  0  0  0
    4.8270    0.9820   17.6170 C   0  0  0  0  0  0  0  0  0  0  0  0
    4.2590    1.3560   18.8670 C   0  0  0  0  0  0  0  0  0  0  0  0
    3.1990    2.2960   18.9480 C   0  0  0  0  0  0  0  0  0  0  0  0
    2.6400    2.6130   20.1570 C   0  0  0  0  0  0  0  0  0  0  0  0
    3.1110    2.0010   21.3400 C   0  0  0  0  0  0  0  0  0  0  0  0
    4.1410    1.0970   21.2910 C   0  0  0  0  0  0  0  0  0  0  0  0
    4.7610    0.7680   20.0480 C   0  0  0  0  0  0  0  0  0  0  0  0
    4.4910    0.6420   22.2130 H   0  0  0  0  0  0  0  0  0  0  0  0
    2.6570    2.2560   22.2960 H   0  0  0  0  0  0  0  0  0  0  0  0
    1.8360    3.3420   20.2150 H   0  0  0  0  0  0  0  0  0  0  0  0
    2.8490    2.7580   18.0300 H   0  0  0  0  0  0  0  0  0  0  0  0
    4.4300    1.4360   16.7090 H   0  0  0  0  0  0  0  0  0  0  0  0
    7.0720   -1.1880   18.4770 H   0  0  0  0  0  0  0  0  0  0  0  0
    7.1510   -0.0760   21.9560 C   0  0  0  0  0  0  0  0  0  0  0  0
    7.2810    1.1290   21.9580 O   0  0  0  0  0  0  0  0  0  0  0  0
    7.6660   -1.0710   23.0100 C   0  0  1  0  0  0  0  0  0  0  0  0
    6.8200   -0.8480   24.2890 C   0  0  0  0  0  0  0  0  0  0  0  0
    7.3370   -1.5530   25.4490 N   0  0  0  0  0  0  0  0  0  0  0  0
    6.4320   -2.1070   26.4410 C   0  0  0  0  0  0  0  0  0  0  0  0
    6.0520   -1.0780   27.5050 C   0  0  0  0  0  0  0  0  0  0  0  0
    5.1290   -1.6150   28.5400 N   0  3  2  0  0  0  0  0  0  0  0  0
    4.5840   -0.5410   29.4400 C   0  0  0  0  0  0  0  0  0  0  0  0
    4.0990   -1.2580   30.6970 C   0  0  0  0  0  0  0  0  0  0  0  0
    4.9580   -2.5280   30.8100 C   0  0  0  0  0  0  0  0  0  0  0  0
    5.7920   -2.6450   32.1010 C   0  0  0  0  0  0  0  0  0  0  0  0
    4.8590   -3.5650   32.6780 O   0  0  0  0  0  0  0  0  0  0  0  0
    4.2040   -3.7220   31.4150 C   0  0  0  0  0  0  0  0  0  0  0  0
    4.3940   -4.6910   30.9340 H   0  0  0  0  0  0  0  0  0  0  0  0
    3.1260   -3.6050   31.5160 H   0  0  0  0  0  0  0  0  0  0  0  0
    5.8720   -1.7230   32.6840 H   0  0  0  0  0  0  0  0  0  0  0  0
    6.7870   -3.0910   31.9910 H   0  0  0  0  0  0  0  0  0  0  0  0
    5.6920   -2.6720   29.4790 C   0  0  0  0  0  0  0  0  0  0  0  0
    5.5540   -3.6630   29.0420 H   0  0  0  0  0  0  0  0  0  0  0  0
    6.7630   -2.4880   29.5980 H   0  0  0  0  0  0  0  0  0  0  0  0
    3.0370   -1.5160   30.6020 H   0  0  0  0  0  0  0  0  0  0  0  0
    4.1830   -0.6250   31.5890 H   0  0  0  0  0  0  0  0  0  0  0  0
    5.4100    0.1320   29.6800 H   0  0  0  0  0  0  0  0  0  0  0  0
    3.8060    0.0190   28.9170 H   0  0  0  0  0  0  0  0  0  0  0  0
    4.3330   -2.0440   28.0250 H   0  0  0  0  0  0  0  0  0  0  0  0
    5.5860   -0.2110   27.0200 H   0  0  0  0  0  0  0  0  0  0  0  0
    6.9640   -0.7090   27.9860 H   0  0  0  0  0  0  0  0  0  0  0  0
    5.5380   -2.4770   25.9200 H   0  0  0  0  0  0  0  0  0  0  0  0
    6.9460   -2.9560   26.8990 H   0  0  0  0  0  0  0  0  0  0  0  0
    8.6660   -1.5450   25.7490 C   0  0  0  0  0  0  0  0  0  0  0  0
    9.1020   -1.9400   26.8220 O   0  0  0  0  0  0  0  0  0  0  0  0
    9.5710   -1.0610   24.6740 C   0  0  0  0  0  0  0  0  0  0  0  0
   10.9070   -0.9170   25.0230 C   0  0  0  0  0  0  0  0  0  0  0  0
   11.8300   -0.5300   24.0770 C   0  0  0  0  0  0  0  0  0  0  0  0
   11.3920   -0.3020   22.7720 C   0  0  0  0  0  0  0  0  0  0  0  0
   12.5990    0.1810   21.6140 Cl  0  0  0  0  0  0  0  0  0  0  0  0
   10.0610   -0.4580   22.4010 C   0  0  0  0  0  0  0  0  0  0  0  0
    9.1210   -0.8330   23.3700 C   0  0  0  0  0  0  0  0  0  0  0  0
    9.7510   -0.2920   21.3730 H   0  0  0  0  0  0  0  0  0  0  0  0
   12.8800   -0.4160   24.3270 H   0  0  0  0  0  0  0  0  0  0  0  0
   11.1690   -1.1270   26.0540 H   0  0  0  0  0  0  0  0  0  0  0  0
    5.7900   -1.1780   24.1130 H   0  0  0  0  0  0  0  0  0  0  0  0
    6.8020    0.2350   24.4730 H   0  0  0  0  0  0  0  0  0  0  0  0
    6.4740   -2.7320   20.3120 H   0  0  0  0  0  0  0  0  0  0  0  0
    5.3420   -2.4260   21.6260 H   0  0  0  0  0  0  0  0  0  0  0  0
    8.3720   -2.6640   21.7570 H   0  0  0  0  0  0  0  0  0  0  0  0
    6.1320   -3.4980   23.6900 H   0  0  0  0  0  0  0  0  0  0  0  0
    7.0280   -4.5630   22.6090 H   0  0  0  0  0  0  0  0  0  0  0  0
    7.8580   -3.7800   23.9660 H   0  0  0  0  0  0  0  0  0  0  0  0
  1  2  1  0  0  0  0
  1 68  1  0  0  0  0
  1 69  1  0  0  0  0
  1 70  1  0  0  0  0
  2  3  1  0  0  0  0
  2 23  1  0  0  0  0
  2 67  1  6  0  0  0
  3  4  1  0  0  0  0
  3 65  1  0  0  0  0
  3 66  1  0  0  0  0
  4  5  1  0  0  0  0
  4 21  1  0  0  0  0
  5  6  2  0  0  0  0
  5 14  1  0  0  0  0
  6  7  1  0  0  0  0
  6 20  1  0  0  0  0
  7  8  2  0  0  0  0
  8  9  1  0  0  0  0
  8 19  1  0  0  0  0
  9 10  2  0  0  0  0
  9 14  1  0  0  0  0
 10 11  1  0  0  0  0
 10 18  1  0  0  0  0
 11 12  2  0  0  0  0
 11 17  1  0  0  0  0
 12 13  1  0  0  0  0
 12 16  1  0  0  0  0
 13 14  2  0  0  0  0
 13 15  1  0  0  0  0
 21 22  2  0  0  0  0
 23 21  1  6  0  0  0
 23 24  1  0  0  0  0
 23 59  1  0  0  0  0
 24 25  1  0  0  0  0
 24 63  1  0  0  0  0
 24 64  1  0  0  0  0
 25 26  1  0  0  0  0
 25 51  1  0  0  0  0
 26 27  1  0  0  0  0
 26 49  1  0  0  0  0
 26 50  1  0  0  0  0
 27 28  1  0  0  0  0
 27 47  1  0  0  0  0
 27 48  1  0  0  0  0
 28 29  1  0  0  0  0
 28 39  1  0  0  0  0
 28 46  1  6  0  0  0
 29 30  1  0  0  0  0
 29 44  1  0  0  0  0
 29 45  1  0  0  0  0
 30 31  1  0  0  0  0
 30 42  1  0  0  0  0
 30 43  1  0  0  0  0
 31 32  1  0  0  0  0
 31 34  1  0  0  0  0
 31 39  1  0  0  0  0
 32 33  1  0  0  0  0
 32 37  1  0  0  0  0
 32 38  1  0  0  0  0
 33 34  1  0  0  0  0
 34 35  1  0  0  0  0
 34 36  1  0  0  0  0
 39 40  1  0  0  0  0
 39 41  1  0  0  0  0
 51 52  2  0  0  0  0
 51 53  1  0  0  0  0
 53 54  2  0  0  0  0
 53 59  1  0  0  0  0
 54 55  1  0  0  0  0
 54 62  1  0  0  0  0
 55 56  2  0  0  0  0
 55 61  1  0  0  0  0
 56 57  1  0  0  0  0
 56 58  1  0  0  0  0
 58 59  2  0  0  0  0
 58 60  1  0  0  0  0
M  CHG  1  28   1
M  END
>  <MODEL>
       3

$$$$
best_conformers_62.pdb
 OpenBabel02042510453D

 70 76  0  0  1  0  0  0  0  0999 V2000
    7.1960   -3.6210   23.1730 C   0  0  0  0  0  0  0  0  0  0  0  0
    7.4740   -2.4120   22.2930 C   0  0  1  0  0  0  0  0  0  0  0  0
    6.3680   -2.1720   21.2600 C   0  0  0  0  0  0  0  0  0  0  0  0
    6.4680   -0.7530   20.9920 N   0  0  0  0  0  0  0  0  0  0  0  0
    5.8450   -0.1410   19.8820 C   0  0  0  0  0  0  0  0  0  0  0  0
    6.2700   -0.4490   18.6150 C   0  0  0  0  0  0  0  0  0  0  0  0
    5.7950    0.1090   17.4750 N   0  0  0  0  0  0  0  0  0  0  0  0
    4.8250    0.9860   17.6060 C   0  0  0  0  0  0  0  0  0  0  0  0
    4.2580    1.3600   18.8580 C   0  0  0  0  0  0  0  0  0  0  0  0
    3.2010    2.3040   18.9380 C   0  0  0  0  0  0  0  0  0  0  0  0
    2.6450    2.6170   20.1490 C   0  0  0  0  0  0  0  0  0  0  0  0
    3.1110    2.0020   21.3320 C   0  0  0  0  0  0  0  0  0  0  0  0
    4.1390    1.0970   21.2830 C   0  0  0  0  0  0  0  0  0  0  0  0
    4.7560    0.7700   20.0400 C   0  0  0  0  0  0  0  0  0  0  0  0
    4.4910    0.6360   22.2000 H   0  0  0  0  0  0  0  0  0  0  0  0
    2.6500    2.2510   22.2840 H   0  0  0  0  0  0  0  0  0  0  0  0
    1.8340    3.3360   20.2060 H   0  0  0  0  0  0  0  0  0  0  0  0
    2.8450    2.7640   18.0190 H   0  0  0  0  0  0  0  0  0  0  0  0
    4.4280    1.4390   16.6970 H   0  0  0  0  0  0  0  0  0  0  0  0
    7.0760   -1.1700   18.4950 H   0  0  0  0  0  0  0  0  0  0  0  0
    7.1430   -0.0460   21.9660 C   0  0  0  0  0  0  0  0  0  0  0  0
    7.2630    1.1590   21.9840 O   0  0  0  0  0  0  0  0  0  0  0  0
    7.6530   -1.0320   23.0270 C   0  0  1  0  0  0  0  0  0  0  0  0
    6.7530   -0.8280   24.2840 C   0  0  0  0  0  0  0  0  0  0  0  0
    7.2670   -1.5120   25.4640 N   0  0  0  0  0  0  0  0  0  0  0  0
    6.3730   -2.0870   26.4630 C   0  0  0  0  0  0  0  0  0  0  0  0
    5.9280   -1.0620   27.5080 C   0  0  0  0  0  0  0  0  0  0  0  0
    5.0660   -1.6960   28.5790 N   0  3  2  0  0  0  0  0  0  0  0  0
    4.1970   -0.7280   29.3370 C   0  0  0  0  0  0  0  0  0  0  0  0
    5.0380   -0.2660   30.5220 C   0  0  0  0  0  0  0  0  0  0  0  0
    5.9380   -1.4500   30.8940 C   0  0  0  0  0  0  0  0  0  0  0  0
    7.3500   -1.0780   31.3830 C   0  0  0  0  0  0  0  0  0  0  0  0
    7.0960   -1.5710   32.6990 O   0  0  0  0  0  0  0  0  0  0  0  0
    5.8110   -2.0720   32.3040 C   0  0  0  0  0  0  0  0  0  0  0  0
    5.0050   -1.6690   32.9370 H   0  0  0  0  0  0  0  0  0  0  0  0
    5.7690   -3.1760   32.3090 H   0  0  0  0  0  0  0  0  0  0  0  0
    7.6050   -0.0110   31.3760 H   0  0  0  0  0  0  0  0  0  0  0  0
    8.1500   -1.6350   30.8870 H   0  0  0  0  0  0  0  0  0  0  0  0
    5.8430   -2.4110   29.6960 C   0  0  0  0  0  0  0  0  0  0  0  0
    5.2780   -3.3110   29.9480 H   0  0  0  0  0  0  0  0  0  0  0  0
    6.8220   -2.7190   29.3210 H   0  0  0  0  0  0  0  0  0  0  0  0
    4.4010    0.0830   31.3380 H   0  0  0  0  0  0  0  0  0  0  0  0
    5.6560    0.5830   30.2050 H   0  0  0  0  0  0  0  0  0  0  0  0
    3.9040    0.0990   28.6900 H   0  0  0  0  0  0  0  0  0  0  0  0
    3.3010   -1.2620   29.6500 H   0  0  0  0  0  0  0  0  0  0  0  0
    4.4680   -2.3850   28.1000 H   0  0  0  0  0  0  0  0  0  0  0  0
    6.7990   -0.6040   27.9800 H   0  0  0  0  0  0  0  0  0  0  0  0
    5.3440   -0.2730   27.0200 H   0  0  0  0  0  0  0  0  0  0  0  0
    5.4930   -2.5140   25.9650 H   0  0  0  0  0  0  0  0  0  0  0  0
    6.9090   -2.9130   26.9410 H   0  0  0  0  0  0  0  0  0  0  0  0
    8.5990   -1.4830   25.7730 C   0  0  0  0  0  0  0  0  0  0  0  0
    9.0310   -1.8980   26.8370 O   0  0  0  0  0  0  0  0  0  0  0  0
    9.5220   -0.9560   24.7240 C   0  0  0  0  0  0  0  0  0  0  0  0
   10.8500   -0.7470   25.0870 C   0  0  0  0  0  0  0  0  0  0  0  0
   11.7820   -0.3310   24.1610 C   0  0  0  0  0  0  0  0  0  0  0  0
   11.3600   -0.1370   22.8480 C   0  0  0  0  0  0  0  0  0  0  0  0
   12.5430    0.3640   21.6810 Cl  0  0  0  0  0  0  0  0  0  0  0  0
   10.0450   -0.3500   22.4640 C   0  0  0  0  0  0  0  0  0  0  0  0
    9.0940   -0.7530   23.4120 C   0  0  0  0  0  0  0  0  0  0  0  0
    9.7620   -0.1960   21.4290 H   0  0  0  0  0  0  0  0  0  0  0  0
   12.8180   -0.1700   24.4440 H   0  0  0  0  0  0  0  0  0  0  0  0
   11.1260   -0.9260   26.1180 H   0  0  0  0  0  0  0  0  0  0  0  0
    5.7360   -1.1760   24.0690 H   0  0  0  0  0  0  0  0  0  0  0  0
    6.6730    0.2570   24.4590 H   0  0  0  0  0  0  0  0  0  0  0  0
    5.3720   -2.4370   21.6520 H   0  0  0  0  0  0  0  0  0  0  0  0
    6.5040   -2.7360   20.3360 H   0  0  0  0  0  0  0  0  0  0  0  0
    8.4110   -2.5820   21.7410 H   0  0  0  0  0  0  0  0  0  0  0  0
    7.9630   -3.7220   23.9460 H   0  0  0  0  0  0  0  0  0  0  0  0
    7.1740   -4.5340   22.5700 H   0  0  0  0  0  0  0  0  0  0  0  0
    6.2230   -3.5160   23.6680 H   0  0  0  0  0  0  0  0  0  0  0  0
  1  2  1  0  0  0  0
  1 68  1  0  0  0  0
  1 69  1  0  0  0  0
  1 70  1  0  0  0  0
  2  3  1  0  0  0  0
  2 23  1  0  0  0  0
  2 67  1  6  0  0  0
  3  4  1  0  0  0  0
  3 65  1  0  0  0  0
  3 66  1  0  0  0  0
  4  5  1  0  0  0  0
  4 21  1  0  0  0  0
  5  6  2  0  0  0  0
  5 14  1  0  0  0  0
  6  7  1  0  0  0  0
  6 20  1  0  0  0  0
  7  8  2  0  0  0  0
  8  9  1  0  0  0  0
  8 19  1  0  0  0  0
  9 10  2  0  0  0  0
  9 14  1  0  0  0  0
 10 11  1  0  0  0  0
 10 18  1  0  0  0  0
 11 12  2  0  0  0  0
 11 17  1  0  0  0  0
 12 13  1  0  0  0  0
 12 16  1  0  0  0  0
 13 14  2  0  0  0  0
 13 15  1  0  0  0  0
 21 22  2  0  0  0  0
 23 21  1  6  0  0  0
 23 24  1  0  0  0  0
 23 59  1  0  0  0  0
 24 25  1  0  0  0  0
 24 63  1  0  0  0  0
 24 64  1  0  0  0  0
 25 26  1  0  0  0  0
 25 51  1  0  0  0  0
 26 27  1  0  0  0  0
 26 49  1  0  0  0  0
 26 50  1  0  0  0  0
 27 28  1  0  0  0  0
 27 47  1  0  0  0  0
 27 48  1  0  0  0  0
 28 29  1  0  0  0  0
 28 39  1  0  0  0  0
 28 46  1  6  0  0  0
 29 30  1  0  0  0  0
 29 44  1  0  0  0  0
 29 45  1  0  0  0  0
 30 31  1  0  0  0  0
 30 42  1  0  0  0  0
 30 43  1  0  0  0  0
 31 32  1  0  0  0  0
 31 34  1  0  0  0  0
 31 39  1  0  0  0  0
 32 33  1  0  0  0  0
 32 37  1  0  0  0  0
 32 38  1  0  0  0  0
 33 34  1  0  0  0  0
 34 35  1  0  0  0  0
 34 36  1  0  0  0  0
 39 40  1  0  0  0  0
 39 41  1  0  0  0  0
 51 52  2  0  0  0  0
 51 53  1  0  0  0  0
 53 54  2  0  0  0  0
 53 59  1  0  0  0  0
 54 55  1  0  0  0  0
 54 62  1  0  0  0  0
 55 56  2  0  0  0  0
 55 61  1  0  0  0  0
 56 57  1  0  0  0  0
 56 58  1  0  0  0  0
 58 59  2  0  0  0  0
 58 60  1  0  0  0  0
M  CHG  1  28   1
M  END
>  <MODEL>
       4

$$$$
best_conformers_62.pdb
 OpenBabel02042510453D

 70 76  0  0  1  0  0  0  0  0999 V2000
    6.8310   -3.6350   23.3080 C   0  0  0  0  0  0  0  0  0  0  0  0
    7.2810   -2.4780   22.4090 C   0  0  1  0  0  0  0  0  0  0  0  0
    6.3060   -2.2070   21.2520 C   0  0  0  0  0  0  0  0  0  0  0  0
    6.4570   -0.7890   20.9790 N   0  0  0  0  0  0  0  0  0  0  0  0
    5.8490   -0.1510   19.8660 C   0  0  0  0  0  0  0  0  0  0  0  0
    6.2580   -0.4560   18.5910 C   0  0  0  0  0  0  0  0  0  0  0  0
    5.7680    0.1170   17.4640 N   0  0  0  0  0  0  0  0  0  0  0  0
    4.8050    0.9990   17.6090 C   0  0  0  0  0  0  0  0  0  0  0  0
    4.2390    1.3670   18.8580 C   0  0  0  0  0  0  0  0  0  0  0  0
    3.1780    2.3100   18.9530 C   0  0  0  0  0  0  0  0  0  0  0  0
    2.6280    2.6240   20.1680 C   0  0  0  0  0  0  0  0  0  0  0  0
    3.1120    1.9980   21.3410 C   0  0  0  0  0  0  0  0  0  0  0  0
    4.1410    1.0900   21.2710 C   0  0  0  0  0  0  0  0  0  0  0  0
    4.7550    0.7650   20.0310 C   0  0  0  0  0  0  0  0  0  0  0  0
    4.5000    0.6210   22.1810 H   0  0  0  0  0  0  0  0  0  0  0  0
    2.6740    2.2500   22.3030 H   0  0  0  0  0  0  0  0  0  0  0  0
    1.8240    3.3520   20.2390 H   0  0  0  0  0  0  0  0  0  0  0  0
    2.8180    2.7790   18.0390 H   0  0  0  0  0  0  0  0  0  0  0  0
    4.4190    1.4600   16.7010 H   0  0  0  0  0  0  0  0  0  0  0  0
    7.0420   -1.1940   18.4280 H   0  0  0  0  0  0  0  0  0  0  0  0
    7.1050   -0.0940   21.9810 C   0  0  0  0  0  0  0  0  0  0  0  0
    7.2810    1.1080   21.9770 O   0  0  0  0  0  0  0  0  0  0  0  0
    7.4980   -1.0810   23.0950 C   0  0  1  0  0  0  0  0  0  0  0  0
    6.5600   -0.7940   24.2930 C   0  0  0  0  0  0  0  0  0  0  0  0
    6.9800   -1.4430   25.5240 N   0  0  0  0  0  0  0  0  0  0  0  0
    5.9820   -1.7850   26.5340 C   0  0  0  0  0  0  0  0  0  0  0  0
    5.8350   -3.3030   26.7480 C   0  0  0  0  0  0  0  0  0  0  0  0
    5.2590   -3.6920   28.0820 N   0  3  2  0  0  0  0  0  0  0  0  0
    3.8660   -3.1770   28.3850 C   0  0  0  0  0  0  0  0  0  0  0  0
    3.8270   -2.9630   29.8990 C   0  0  0  0  0  0  0  0  0  0  0  0
    5.2700   -2.6370   30.2960 C   0  0  0  0  0  0  0  0  0  0  0  0
    5.6390   -2.7800   31.7790 C   0  0  0  0  0  0  0  0  0  0  0  0
    5.9250   -1.3780   31.8990 O   0  0  0  0  0  0  0  0  0  0  0  0
    5.6100   -1.1520   30.5200 C   0  0  0  0  0  0  0  0  0  0  0  0
    4.7790   -0.4420   30.3890 H   0  0  0  0  0  0  0  0  0  0  0  0
    6.4740   -0.7790   29.9520 H   0  0  0  0  0  0  0  0  0  0  0  0
    4.8220   -3.1040   32.4420 H   0  0  0  0  0  0  0  0  0  0  0  0
    6.5150   -3.4070   31.9930 H   0  0  0  0  0  0  0  0  0  0  0  0
    6.1380   -3.3900   29.2830 C   0  0  0  0  0  0  0  0  0  0  0  0
    6.4970   -4.3400   29.6920 H   0  0  0  0  0  0  0  0  0  0  0  0
    7.0070   -2.8270   28.9400 H   0  0  0  0  0  0  0  0  0  0  0  0
    3.1380   -2.1610   30.1900 H   0  0  0  0  0  0  0  0  0  0  0  0
    3.5010   -3.8740   30.4230 H   0  0  0  0  0  0  0  0  0  0  0  0
    3.7250   -2.2480   27.8340 H   0  0  0  0  0  0  0  0  0  0  0  0
    3.1200   -3.8950   28.0280 H   0  0  0  0  0  0  0  0  0  0  0  0
    5.1760   -4.7220   28.0430 H   0  0  0  0  0  0  0  0  0  0  0  0
    5.1810   -3.7240   25.9740 H   0  0  0  0  0  0  0  0  0  0  0  0
    6.8150   -3.7840   26.6670 H   0  0  0  0  0  0  0  0  0  0  0  0
    5.0310   -1.3550   26.2020 H   0  0  0  0  0  0  0  0  0  0  0  0
    6.2520   -1.3050   27.4820 H   0  0  0  0  0  0  0  0  0  0  0  0
    8.2960   -1.5330   25.8850 C   0  0  0  0  0  0  0  0  0  0  0  0
    8.6240   -1.9890   26.9700 O   0  0  0  0  0  0  0  0  0  0  0  0
    9.3070   -1.1050   24.8700 C   0  0  0  0  0  0  0  0  0  0  0  0
   10.6460   -1.0180   25.2500 C   0  0  0  0  0  0  0  0  0  0  0  0
   11.6250   -0.7170   24.3230 C   0  0  0  0  0  0  0  0  0  0  0  0
   11.2510   -0.5200   22.9950 C   0  0  0  0  0  0  0  0  0  0  0  0
   12.4850   -0.1460   21.8300 Cl  0  0  0  0  0  0  0  0  0  0  0  0
    9.9300   -0.6200   22.5940 C   0  0  0  0  0  0  0  0  0  0  0  0
    8.9350   -0.8920   23.5390 C   0  0  0  0  0  0  0  0  0  0  0  0
    9.6740   -0.4680   21.5510 H   0  0  0  0  0  0  0  0  0  0  0  0
   12.6710   -0.6410   24.5980 H   0  0  0  0  0  0  0  0  0  0  0  0
   10.8980   -1.2190   26.2850 H   0  0  0  0  0  0  0  0  0  0  0  0
    5.5490   -1.1590   24.0630 H   0  0  0  0  0  0  0  0  0  0  0  0
    6.5330    0.3030   24.4090 H   0  0  0  0  0  0  0  0  0  0  0  0
    6.5410   -2.7800   20.3540 H   0  0  0  0  0  0  0  0  0  0  0  0
    5.2680   -2.4560   21.5290 H   0  0  0  0  0  0  0  0  0  0  0  0
    8.2610   -2.7350   21.9810 H   0  0  0  0  0  0  0  0  0  0  0  0
    7.5150   -3.7740   24.1530 H   0  0  0  0  0  0  0  0  0  0  0  0
    5.8300   -3.4520   23.7200 H   0  0  0  0  0  0  0  0  0  0  0  0
    6.7920   -4.5780   22.7460 H   0  0  0  0  0  0  0  0  0  0  0  0
  1  2  1  0  0  0  0
  1 68  1  0  0  0  0
  1 69  1  0  0  0  0
  1 70  1  0  0  0  0
  2  3  1  0  0  0  0
  2 23  1  0  0  0  0
  2 67  1  6  0  0  0
  3  4  1  0  0  0  0
  3 65  1  0  0  0  0
  3 66  1  0  0  0  0
  4  5  1  0  0  0  0
  4 21  1  0  0  0  0
  5  6  2  0  0  0  0
  5 14  1  0  0  0  0
  6  7  1  0  0  0  0
  6 20  1  0  0  0  0
  7  8  2  0  0  0  0
  8  9  1  0  0  0  0
  8 19  1  0  0  0  0
  9 10  2  0  0  0  0
  9 14  1  0  0  0  0
 10 11  1  0  0  0  0
 10 18  1  0  0  0  0
 11 12  2  0  0  0  0
 11 17  1  0  0  0  0
 12 13  1  0  0  0  0
 12 16  1  0  0  0  0
 13 14  2  0  0  0  0
 13 15  1  0  0  0  0
 21 22  2  0  0  0  0
 23 21  1  6  0  0  0
 23 24  1  0  0  0  0
 23 59  1  0  0  0  0
 24 25  1  0  0  0  0
 24 63  1  0  0  0  0
 24 64  1  0  0  0  0
 25 26  1  0  0  0  0
 25 51  1  0  0  0  0
 26 27  1  0  0  0  0
 26 49  1  0  0  0  0
 26 50  1  0  0  0  0
 27 28  1  0  0  0  0
 27 47  1  0  0  0  0
 27 48  1  0  0  0  0
 28 29  1  0  0  0  0
 28 39  1  0  0  0  0
 28 46  1  6  0  0  0
 29 30  1  0  0  0  0
 29 44  1  0  0  0  0
 29 45  1  0  0  0  0
 30 31  1  0  0  0  0
 30 42  1  0  0  0  0
 30 43  1  0  0  0  0
 31 32  1  0  0  0  0
 31 34  1  0  0  0  0
 31 39  1  0  0  0  0
 32 33  1  0  0  0  0
 32 37  1  0  0  0  0
 32 38  1  0  0  0  0
 33 34  1  0  0  0  0
 34 35  1  0  0  0  0
 34 36  1  0  0  0  0
 39 40  1  0  0  0  0
 39 41  1  0  0  0  0
 51 52  2  0  0  0  0
 51 53  1  0  0  0  0
 53 54  2  0  0  0  0
 53 59  1  0  0  0  0
 54 55  1  0  0  0  0
 54 62  1  0  0  0  0
 55 56  2  0  0  0  0
 55 61  1  0  0  0  0
 56 57  1  0  0  0  0
 56 58  1  0  0  0  0
 58 59  2  0  0  0  0
 58 60  1  0  0  0  0
M  CHG  1  28   1
M  END
>  <MODEL>
       5

$$$$
best_conformers_62.pdb
 OpenBabel02042510453D

 70 76  0  0  1  0  0  0  0  0999 V2000
    6.8720   -3.6450   23.2640 C   0  0  0  0  0  0  0  0  0  0  0  0
    7.2810   -2.4880   22.3610 C   0  0  1  0  0  0  0  0  0  0  0  0
    6.2500   -2.2010   21.2630 C   0  0  0  0  0  0  0  0  0  0  0  0
    6.4440   -0.7990   20.9790 N   0  0  0  0  0  0  0  0  0  0  0  0
    5.8400   -0.1590   19.8780 C   0  0  0  0  0  0  0  0  0  0  0  0
    6.2750   -0.4640   18.6120 C   0  0  0  0  0  0  0  0  0  0  0  0
    5.8040    0.1050   17.4780 N   0  0  0  0  0  0  0  0  0  0  0  0
    4.8330    0.9790   17.6180 C   0  0  0  0  0  0  0  0  0  0  0  0
    4.2630    1.3500   18.8700 C   0  0  0  0  0  0  0  0  0  0  0  0
    3.2040    2.2920   18.9490 C   0  0  0  0  0  0  0  0  0  0  0  0
    2.6430    2.6080   20.1560 C   0  0  0  0  0  0  0  0  0  0  0  0
    3.1110    1.9980   21.3410 C   0  0  0  0  0  0  0  0  0  0  0  0
    4.1420    1.0940   21.2950 C   0  0  0  0  0  0  0  0  0  0  0  0
    4.7600    0.7610   20.0510 C   0  0  0  0  0  0  0  0  0  0  0  0
    4.4910    0.6440   22.2200 H   0  0  0  0  0  0  0  0  0  0  0  0
    2.6540    2.2530   22.2940 H   0  0  0  0  0  0  0  0  0  0  0  0
    1.8360    3.3340   20.2110 H   0  0  0  0  0  0  0  0  0  0  0  0
    2.8550    2.7520   18.0290 H   0  0  0  0  0  0  0  0  0  0  0  0
    4.4350    1.4350   16.7110 H   0  0  0  0  0  0  0  0  0  0  0  0
    7.0740   -1.1940   18.4870 H   0  0  0  0  0  0  0  0  0  0  0  0
    7.1190   -0.1140   21.9590 C   0  0  0  0  0  0  0  0  0  0  0  0
    7.3040    1.0850   21.9430 O   0  0  0  0  0  0  0  0  0  0  0  0
    7.5390   -1.1030   23.0570 C   0  0  1  0  0  0  0  0  0  0  0  0
    6.6460   -0.7780   24.2820 C   0  0  0  0  0  0  0  0  0  0  0  0
    7.0910   -1.3730   25.5310 N   0  0  0  0  0  0  0  0  0  0  0  0
    6.0860   -1.9150   26.4250 C   0  0  0  0  0  0  0  0  0  0  0  0
    5.2430   -0.8320   27.0910 C   0  0  0  0  0  0  0  0  0  0  0  0
    6.0140    0.0040   28.0530 N   0  3  2  0  0  0  0  0  0  0  0  0
    6.2580   -0.6640   29.3870 C   0  0  0  0  0  0  0  0  0  0  0  0
    6.4350    0.4710   30.4130 C   0  0  0  0  0  0  0  0  0  0  0  0
    6.0000    1.7740   29.7200 C   0  0  0  0  0  0  0  0  0  0  0  0
    5.2310    2.7340   30.6500 C   0  0  0  0  0  0  0  0  0  0  0  0
    6.1920    3.7810   30.4910 O   0  0  0  0  0  0  0  0  0  0  0  0
    6.9790    2.9700   29.6160 C   0  0  0  0  0  0  0  0  0  0  0  0
    7.0470    3.4220   28.6160 H   0  0  0  0  0  0  0  0  0  0  0  0
    7.9830    2.8050   30.0220 H   0  0  0  0  0  0  0  0  0  0  0  0
    5.2080    2.3880   31.6910 H   0  0  0  0  0  0  0  0  0  0  0  0
    4.2210    3.0340   30.3420 H   0  0  0  0  0  0  0  0  0  0  0  0
    5.3580    1.3190   28.4110 C   0  0  0  0  0  0  0  0  0  0  0  0
    4.2860    1.1390   28.5520 H   0  0  0  0  0  0  0  0  0  0  0  0
    5.4790    2.0220   27.5840 H   0  0  0  0  0  0  0  0  0  0  0  0
    5.7760    0.2770   31.2700 H   0  0  0  0  0  0  0  0  0  0  0  0
    7.4490    0.5660   30.8140 H   0  0  0  0  0  0  0  0  0  0  0  0
    5.3640   -1.2400   29.6090 H   0  0  0  0  0  0  0  0  0  0  0  0
    7.0890   -1.3670   29.3210 H   0  0  0  0  0  0  0  0  0  0  0  0
    6.9460    0.1820   27.6260 H   0  0  0  0  0  0  0  0  0  0  0  0
    4.7970   -0.1820   26.3290 H   0  0  0  0  0  0  0  0  0  0  0  0
    4.4100   -1.3190   27.6130 H   0  0  0  0  0  0  0  0  0  0  0  0
    5.4250   -2.5920   25.8630 H   0  0  0  0  0  0  0  0  0  0  0  0
    6.6280   -2.4980   27.1700 H   0  0  0  0  0  0  0  0  0  0  0  0
    8.4030   -1.5740   25.8250 C   0  0  0  0  0  0  0  0  0  0  0  0
    8.7810   -2.0710   26.8800 O   0  0  0  0  0  0  0  0  0  0  0  0
    9.3820   -1.1620   24.7840 C   0  0  0  0  0  0  0  0  0  0  0  0
   10.7150   -1.0800   25.1680 C   0  0  0  0  0  0  0  0  0  0  0  0
   11.6800   -0.7480   24.2390 C   0  0  0  0  0  0  0  0  0  0  0  0
   11.2890   -0.5250   22.9180 C   0  0  0  0  0  0  0  0  0  0  0  0
   12.5240   -0.1440   21.7550 Cl  0  0  0  0  0  0  0  0  0  0  0  0
    9.9640   -0.6160   22.5200 C   0  0  0  0  0  0  0  0  0  0  0  0
    8.9830   -0.9260   23.4680 C   0  0  0  0  0  0  0  0  0  0  0  0
    9.6850   -0.4490   21.4850 H   0  0  0  0  0  0  0  0  0  0  0  0
   12.7250   -0.6730   24.5170 H   0  0  0  0  0  0  0  0  0  0  0  0
   10.9450   -1.2860   26.2080 H   0  0  0  0  0  0  0  0  0  0  0  0
    6.6290    0.3150   24.3790 H   0  0  0  0  0  0  0  0  0  0  0  0
    5.6180   -1.1010   24.0790 H   0  0  0  0  0  0  0  0  0  0  0  0
    5.2220   -2.3880   21.6070 H   0  0  0  0  0  0  0  0  0  0  0  0
    6.3950   -2.7830   20.3510 H   0  0  0  0  0  0  0  0  0  0  0  0
    8.2270   -2.7450   21.8630 H   0  0  0  0  0  0  0  0  0  0  0  0
    5.8910   -3.4590   23.7150 H   0  0  0  0  0  0  0  0  0  0  0  0
    7.5940   -3.7980   24.0700 H   0  0  0  0  0  0  0  0  0  0  0  0
    6.7950   -4.5750   22.6930 H   0  0  0  0  0  0  0  0  0  0  0  0
  1  2  1  0  0  0  0
  1 68  1  0  0  0  0
  1 69  1  0  0  0  0
  1 70  1  0  0  0  0
  2  3  1  0  0  0  0
  2 23  1  0  0  0  0
  2 67  1  6  0  0  0
  3  4  1  0  0  0  0
  3 65  1  0  0  0  0
  3 66  1  0  0  0  0
  4  5  1  0  0  0  0
  4 21  1  0  0  0  0
  5  6  2  0  0  0  0
  5 14  1  0  0  0  0
  6  7  1  0  0  0  0
  6 20  1  0  0  0  0
  7  8  2  0  0  0  0
  8  9  1  0  0  0  0
  8 19  1  0  0  0  0
  9 10  2  0  0  0  0
  9 14  1  0  0  0  0
 10 11  1  0  0  0  0
 10 18  1  0  0  0  0
 11 12  2  0  0  0  0
 11 17  1  0  0  0  0
 12 13  1  0  0  0  0
 12 16  1  0  0  0  0
 13 14  2  0  0  0  0
 13 15  1  0  0  0  0
 21 22  2  0  0  0  0
 23 21  1  6  0  0  0
 23 24  1  0  0  0  0
 23 59  1  0  0  0  0
 24 25  1  0  0  0  0
 24 63  1  0  0  0  0
 24 64  1  0  0  0  0
 25 26  1  0  0  0  0
 25 51  1  0  0  0  0
 26 27  1  0  0  0  0
 26 49  1  0  0  0  0
 26 50  1  0  0  0  0
 27 28  1  0  0  0  0
 27 47  1  0  0  0  0
 27 48  1  0  0  0  0
 28 29  1  0  0  0  0
 28 39  1  0  0  0  0
 28 46  1  6  0  0  0
 29 30  1  0  0  0  0
 29 44  1  0  0  0  0
 29 45  1  0  0  0  0
 30 31  1  0  0  0  0
 30 42  1  0  0  0  0
 30 43  1  0  0  0  0
 31 32  1  0  0  0  0
 31 34  1  0  0  0  0
 31 39  1  0  0  0  0
 32 33  1  0  0  0  0
 32 37  1  0  0  0  0
 32 38  1  0  0  0  0
 33 34  1  0  0  0  0
 34 35  1  0  0  0  0
 34 36  1  0  0  0  0
 39 40  1  0  0  0  0
 39 41  1  0  0  0  0
 51 52  2  0  0  0  0
 51 53  1  0  0  0  0
 53 54  2  0  0  0  0
 53 59  1  0  0  0  0
 54 55  1  0  0  0  0
 54 62  1  0  0  0  0
 55 56  2  0  0  0  0
 55 61  1  0  0  0  0
 56 57  1  0  0  0  0
 56 58  1  0  0  0  0
 58 59  2  0  0  0  0
 58 60  1  0  0  0  0
M  CHG  1  28   1
M  END
>  <MODEL>
       6

$$$$
best_conformers_62.pdb
 OpenBabel02042510453D

 70 76  0  0  1  0  0  0  0  0999 V2000
    6.9140   -3.6450   23.2750 C   0  0  0  0  0  0  0  0  0  0  0  0
    7.3390   -2.4810   22.3740 C   0  0  1  0  0  0  0  0  0  0  0  0
    6.3370   -2.2080   21.2380 C   0  0  0  0  0  0  0  0  0  0  0  0
    6.4580   -0.7860   20.9820 N   0  0  0  0  0  0  0  0  0  0  0  0
    5.8490   -0.1510   19.8650 C   0  0  0  0  0  0  0  0  0  0  0  0
    6.2570   -0.4550   18.5930 C   0  0  0  0  0  0  0  0  0  0  0  0
    5.7690    0.1170   17.4630 N   0  0  0  0  0  0  0  0  0  0  0  0
    4.8050    0.9990   17.6080 C   0  0  0  0  0  0  0  0  0  0  0  0
    4.2400    1.3670   18.8590 C   0  0  0  0  0  0  0  0  0  0  0  0
    3.1800    2.3110   18.9540 C   0  0  0  0  0  0  0  0  0  0  0  0
    2.6310    2.6250   20.1680 C   0  0  0  0  0  0  0  0  0  0  0  0
    3.1160    2.0000   21.3400 C   0  0  0  0  0  0  0  0  0  0  0  0
    4.1410    1.0940   21.2720 C   0  0  0  0  0  0  0  0  0  0  0  0
    4.7560    0.7660   20.0320 C   0  0  0  0  0  0  0  0  0  0  0  0
    4.5020    0.6240   22.1810 H   0  0  0  0  0  0  0  0  0  0  0  0
    2.6780    2.2530   22.3030 H   0  0  0  0  0  0  0  0  0  0  0  0
    1.8280    3.3540   20.2390 H   0  0  0  0  0  0  0  0  0  0  0  0
    2.8200    2.7790   18.0400 H   0  0  0  0  0  0  0  0  0  0  0  0
    4.4180    1.4610   16.7000 H   0  0  0  0  0  0  0  0  0  0  0  0
    7.0440   -1.1920   18.4270 H   0  0  0  0  0  0  0  0  0  0  0  0
    7.1170   -0.0920   21.9750 C   0  0  0  0  0  0  0  0  0  0  0  0
    7.2760    1.1120   21.9810 O   0  0  0  0  0  0  0  0  0  0  0  0
    7.5630   -1.0880   23.0670 C   0  0  1  0  0  0  0  0  0  0  0  0
    6.6720   -0.8220   24.3080 C   0  0  0  0  0  0  0  0  0  0  0  0
    7.1520   -1.4580   25.5300 N   0  0  0  0  0  0  0  0  0  0  0  0
    6.2010   -1.7970   26.5870 C   0  0  0  0  0  0  0  0  0  0  0  0
    6.1100   -3.3040   26.8440 C   0  0  0  0  0  0  0  0  0  0  0  0
    5.2650   -3.6400   28.0250 N   0  3  2  0  0  0  0  0  0  0  0  0
    5.3170   -5.1040   28.3850 C   0  0  0  0  0  0  0  0  0  0  0  0
    4.0500   -5.3850   29.1950 C   0  0  0  0  0  0  0  0  0  0  0  0
    3.0360   -4.3030   28.7930 C   0  0  0  0  0  0  0  0  0  0  0  0
    2.2090   -3.6850   29.9410 C   0  0  0  0  0  0  0  0  0  0  0  0
    0.9760   -4.1540   29.3820 O   0  0  0  0  0  0  0  0  0  0  0  0
    1.6580   -4.7620   28.2770 C   0  0  0  0  0  0  0  0  0  0  0  0
    1.5030   -5.8500   28.2380 H   0  0  0  0  0  0  0  0  0  0  0  0
    1.3440   -4.3340   27.3140 H   0  0  0  0  0  0  0  0  0  0  0  0
    2.3970   -4.1060   30.9380 H   0  0  0  0  0  0  0  0  0  0  0  0
    2.2430   -2.5880   30.0150 H   0  0  0  0  0  0  0  0  0  0  0  0
    3.7880   -3.3290   27.8800 C   0  0  0  0  0  0  0  0  0  0  0  0
    3.5150   -3.4710   26.8290 H   0  0  0  0  0  0  0  0  0  0  0  0
    3.6060   -2.2850   28.1480 H   0  0  0  0  0  0  0  0  0  0  0  0
    4.2490   -5.3370   30.2730 H   0  0  0  0  0  0  0  0  0  0  0  0
    3.6650   -6.3900   28.9890 H   0  0  0  0  0  0  0  0  0  0  0  0
    5.3230   -5.6690   27.4500 H   0  0  0  0  0  0  0  0  0  0  0  0
    6.2450   -5.3160   28.9170 H   0  0  0  0  0  0  0  0  0  0  0  0
    5.6350   -3.1030   28.8410 H   0  0  0  0  0  0  0  0  0  0  0  0
    7.1140   -3.7120   27.0050 H   0  0  0  0  0  0  0  0  0  0  0  0
    5.6750   -3.8080   25.9660 H   0  0  0  0  0  0  0  0  0  0  0  0
    6.5000   -1.2980   27.5180 H   0  0  0  0  0  0  0  0  0  0  0  0
    5.2280   -1.3990   26.2760 H   0  0  0  0  0  0  0  0  0  0  0  0
    8.4820   -1.5130   25.8330 C   0  0  0  0  0  0  0  0  0  0  0  0
    8.8880   -1.9170   26.9130 O   0  0  0  0  0  0  0  0  0  0  0  0
    9.4400   -1.0900   24.7700 C   0  0  0  0  0  0  0  0  0  0  0  0
   10.7880   -0.9870   25.1090 C   0  0  0  0  0  0  0  0  0  0  0  0
   11.7250   -0.6690   24.1480 C   0  0  0  0  0  0  0  0  0  0  0  0
   11.3060   -0.4730   22.8350 C   0  0  0  0  0  0  0  0  0  0  0  0
   12.5250   -0.0820   21.6630 Cl  0  0  0  0  0  0  0  0  0  0  0  0
    9.9730   -0.5900   22.4750 C   0  0  0  0  0  0  0  0  0  0  0  0
    9.0150   -0.8800   23.4550 C   0  0  0  0  0  0  0  0  0  0  0  0
    9.6720   -0.4410   21.4440 H   0  0  0  0  0  0  0  0  0  0  0  0
   12.7790   -0.5780   24.3810 H   0  0  0  0  0  0  0  0  0  0  0  0
   11.0780   -1.1840   26.1360 H   0  0  0  0  0  0  0  0  0  0  0  0
    6.6220    0.2730   24.4230 H   0  0  0  0  0  0  0  0  0  0  0  0
    5.6630   -1.2080   24.1130 H   0  0  0  0  0  0  0  0  0  0  0  0
    6.5610   -2.7610   20.3270 H   0  0  0  0  0  0  0  0  0  0  0  0
    5.3100   -2.4760   21.5320 H   0  0  0  0  0  0  0  0  0  0  0  0
    8.3110   -2.7290   21.9240 H   0  0  0  0  0  0  0  0  0  0  0  0
    6.8910   -4.5840   22.7120 H   0  0  0  0  0  0  0  0  0  0  0  0
    7.6020   -3.7720   24.1180 H   0  0  0  0  0  0  0  0  0  0  0  0
    5.9110   -3.4800   23.6900 H   0  0  0  0  0  0  0  0  0  0  0  0
  1  2  1  0  0  0  0
  1 68  1  0  0  0  0
  1 69  1  0  0  0  0
  1 70  1  0  0  0  0
  2  3  1  0  0  0  0
  2 23  1  0  0  0  0
  2 67  1  6  0  0  0
  3  4  1  0  0  0  0
  3 65  1  0  0  0  0
  3 66  1  0  0  0  0
  4  5  1  0  0  0  0
  4 21  1  0  0  0  0
  5  6  2  0  0  0  0
  5 14  1  0  0  0  0
  6  7  1  0  0  0  0
  6 20  1  0  0  0  0
  7  8  2  0  0  0  0
  8  9  1  0  0  0  0
  8 19  1  0  0  0  0
  9 10  2  0  0  0  0
  9 14  1  0  0  0  0
 10 11  1  0  0  0  0
 10 18  1  0  0  0  0
 11 12  2  0  0  0  0
 11 17  1  0  0  0  0
 12 13  1  0  0  0  0
 12 16  1  0  0  0  0
 13 14  2  0  0  0  0
 13 15  1  0  0  0  0
 21 22  2  0  0  0  0
 23 21  1  6  0  0  0
 23 24  1  0  0  0  0
 23 59  1  0  0  0  0
 24 25  1  0  0  0  0
 24 63  1  0  0  0  0
 24 64  1  0  0  0  0
 25 26  1  0  0  0  0
 25 51  1  0  0  0  0
 26 27  1  0  0  0  0
 26 49  1  0  0  0  0
 26 50  1  0  0  0  0
 27 28  1  0  0  0  0
 27 47  1  0  0  0  0
 27 48  1  0  0  0  0
 28 29  1  0  0  0  0
 28 39  1  0  0  0  0
 28 46  1  1  0  0  0
 29 30  1  0  0  0  0
 29 44  1  0  0  0  0
 29 45  1  0  0  0  0
 30 31  1  0  0  0  0
 30 42  1  0  0  0  0
 30 43  1  0  0  0  0
 31 32  1  0  0  0  0
 31 34  1  0  0  0  0
 31 39  1  0  0  0  0
 32 33  1  0  0  0  0
 32 37  1  0  0  0  0
 32 38  1  0  0  0  0
 33 34  1  0  0  0  0
 34 35  1  0  0  0  0
 34 36  1  0  0  0  0
 39 40  1  0  0  0  0
 39 41  1  0  0  0  0
 51 52  2  0  0  0  0
 51 53  1  0  0  0  0
 53 54  2  0  0  0  0
 53 59  1  0  0  0  0
 54 55  1  0  0  0  0
 54 62  1  0  0  0  0
 55 56  2  0  0  0  0
 55 61  1  0  0  0  0
 56 57  1  0  0  0  0
 56 58  1  0  0  0  0
 58 59  2  0  0  0  0
 58 60  1  0  0  0  0
M  CHG  1  28   1
M  END
>  <MODEL>
       7

$$$$
best_conformers_62.pdb
 OpenBabel02042510453D

 70 76  0  0  1  0  0  0  0  0999 V2000
    6.7840   -3.6070   23.2990 C   0  0  0  0  0  0  0  0  0  0  0  0
    7.2310   -2.4760   22.3840 C   0  0  1  0  0  0  0  0  0  0  0  0
    6.2230   -2.1990   21.2650 C   0  0  0  0  0  0  0  0  0  0  0  0
    6.4360   -0.8030   20.9620 N   0  0  0  0  0  0  0  0  0  0  0  0
    5.8290   -0.1630   19.8640 C   0  0  0  0  0  0  0  0  0  0  0  0
    6.2660   -0.4610   18.6020 C   0  0  0  0  0  0  0  0  0  0  0  0
    5.7980    0.1090   17.4650 N   0  0  0  0  0  0  0  0  0  0  0  0
    4.8290    0.9850   17.6060 C   0  0  0  0  0  0  0  0  0  0  0  0
    4.2610    1.3550   18.8570 C   0  0  0  0  0  0  0  0  0  0  0  0
    3.2070    2.3000   18.9410 C   0  0  0  0  0  0  0  0  0  0  0  0
    2.6500    2.6130   20.1490 C   0  0  0  0  0  0  0  0  0  0  0  0
    3.1150    1.9990   21.3360 C   0  0  0  0  0  0  0  0  0  0  0  0
    4.1420    1.0920   21.2860 C   0  0  0  0  0  0  0  0  0  0  0  0
    4.7540    0.7590   20.0410 C   0  0  0  0  0  0  0  0  0  0  0  0
    4.4900    0.6380   22.2100 H   0  0  0  0  0  0  0  0  0  0  0  0
    2.6530    2.2520   22.2850 H   0  0  0  0  0  0  0  0  0  0  0  0
    1.8410    3.3330   20.2050 H   0  0  0  0  0  0  0  0  0  0  0  0
    2.8550    2.7600   18.0210 H   0  0  0  0  0  0  0  0  0  0  0  0
    4.4310    1.4450   16.6980 H   0  0  0  0  0  0  0  0  0  0  0  0
    7.0720   -1.1840   18.4870 H   0  0  0  0  0  0  0  0  0  0  0  0
    7.1020   -0.1050   21.9390 C   0  0  0  0  0  0  0  0  0  0  0  0
    7.2910    1.0960   21.9120 O   0  0  0  0  0  0  0  0  0  0  0  0
    7.4920   -1.0780   23.0540 C   0  0  1  0  0  0  0  0  0  0  0  0
    6.5640   -0.7490   24.2540 C   0  0  0  0  0  0  0  0  0  0  0  0
    6.9890   -1.3720   25.4960 N   0  0  0  0  0  0  0  0  0  0  0  0
    6.0260   -1.6470   26.5540 C   0  0  0  0  0  0  0  0  0  0  0  0
    5.8600   -3.1510   26.8250 C   0  0  0  0  0  0  0  0  0  0  0  0
    4.8650   -3.4080   27.9050 N   0  3  2  0  0  0  0  0  0  0  0  0
    5.2550   -2.8340   29.2540 C   0  0  0  0  0  0  0  0  0  0  0  0
    4.4490   -3.6150   30.3000 C   0  0  0  0  0  0  0  0  0  0  0  0
    4.0010   -4.9180   29.6170 C   0  0  0  0  0  0  0  0  0  0  0  0
    2.4960   -5.2280   29.6650 C   0  0  0  0  0  0  0  0  0  0  0  0
    2.7310   -6.6090   29.9530 O   0  0  0  0  0  0  0  0  0  0  0  0
    4.1040   -6.3220   30.2600 C   0  0  0  0  0  0  0  0  0  0  0  0
    4.7870   -7.0450   29.7910 H   0  0  0  0  0  0  0  0  0  0  0  0
    4.2680   -6.3210   31.3480 H   0  0  0  0  0  0  0  0  0  0  0  0
    1.9510   -5.0630   28.7280 H   0  0  0  0  0  0  0  0  0  0  0  0
    1.9720   -4.7380   30.4990 H   0  0  0  0  0  0  0  0  0  0  0  0
    4.5680   -4.8550   28.1930 C   0  0  0  0  0  0  0  0  0  0  0  0
    5.5110   -5.4060   28.1230 H   0  0  0  0  0  0  0  0  0  0  0  0
    3.8710   -5.2590   27.4530 H   0  0  0  0  0  0  0  0  0  0  0  0
    5.0400   -3.7790   31.1980 H   0  0  0  0  0  0  0  0  0  0  0  0
    3.5800   -3.0050   30.5960 H   0  0  0  0  0  0  0  0  0  0  0  0
    6.3350   -2.9810   29.3630 H   0  0  0  0  0  0  0  0  0  0  0  0
    5.0280   -1.7660   29.2670 H   0  0  0  0  0  0  0  0  0  0  0  0
    3.9850   -2.9580   27.5880 H   0  0  0  0  0  0  0  0  0  0  0  0
    5.5620   -3.6780   25.9030 H   0  0  0  0  0  0  0  0  0  0  0  0
    6.8220   -3.5680   27.1370 H   0  0  0  0  0  0  0  0  0  0  0  0
    6.3610   -1.1370   27.4670 H   0  0  0  0  0  0  0  0  0  0  0  0
    5.0650   -1.2030   26.2710 H   0  0  0  0  0  0  0  0  0  0  0  0
    8.3060   -1.5360   25.8140 C   0  0  0  0  0  0  0  0  0  0  0  0
    8.6600   -2.0240   26.8790 O   0  0  0  0  0  0  0  0  0  0  0  0
    9.3070   -1.1160   24.7990 C   0  0  0  0  0  0  0  0  0  0  0  0
   10.6370   -1.0280   25.1960 C   0  0  0  0  0  0  0  0  0  0  0  0
   11.6250   -0.7370   24.2810 C   0  0  0  0  0  0  0  0  0  0  0  0
   11.2570   -0.5400   22.9510 C   0  0  0  0  0  0  0  0  0  0  0  0
   12.5070   -0.2330   21.7860 Cl  0  0  0  0  0  0  0  0  0  0  0  0
    9.9370   -0.6240   22.5400 C   0  0  0  0  0  0  0  0  0  0  0  0
    8.9340   -0.8990   23.4750 C   0  0  0  0  0  0  0  0  0  0  0  0
    9.6830   -0.4890   21.4950 H   0  0  0  0  0  0  0  0  0  0  0  0
   12.6670   -0.6830   24.5790 H   0  0  0  0  0  0  0  0  0  0  0  0
   10.8680   -1.2040   26.2400 H   0  0  0  0  0  0  0  0  0  0  0  0
    6.5220    0.3440   24.3620 H   0  0  0  0  0  0  0  0  0  0  0  0
    5.5410   -1.0710   24.0230 H   0  0  0  0  0  0  0  0  0  0  0  0
    6.3900   -2.8040   20.3740 H   0  0  0  0  0  0  0  0  0  0  0  0
    5.1860   -2.3810   21.5870 H   0  0  0  0  0  0  0  0  0  0  0  0
    8.1820   -2.7620   21.9130 H   0  0  0  0  0  0  0  0  0  0  0  0
    6.7540   -4.5510   22.7460 H   0  0  0  0  0  0  0  0  0  0  0  0
    7.4640   -3.7200   24.1480 H   0  0  0  0  0  0  0  0  0  0  0  0
    5.7790   -3.4120   23.6880 H   0  0  0  0  0  0  0  0  0  0  0  0
  1  2  1  0  0  0  0
  1 68  1  0  0  0  0
  1 69  1  0  0  0  0
  1 70  1  0  0  0  0
  2  3  1  0  0  0  0
  2 23  1  0  0  0  0
  2 67  1  6  0  0  0
  3  4  1  0  0  0  0
  3 65  1  0  0  0  0
  3 66  1  0  0  0  0
  4  5  1  0  0  0  0
  4 21  1  0  0  0  0
  5  6  2  0  0  0  0
  5 14  1  0  0  0  0
  6  7  1  0  0  0  0
  6 20  1  0  0  0  0
  7  8  2  0  0  0  0
  8  9  1  0  0  0  0
  8 19  1  0  0  0  0
  9 10  2  0  0  0  0
  9 14  1  0  0  0  0
 10 11  1  0  0  0  0
 10 18  1  0  0  0  0
 11 12  2  0  0  0  0
 11 17  1  0  0  0  0
 12 13  1  0  0  0  0
 12 16  1  0  0  0  0
 13 14  2  0  0  0  0
 13 15  1  0  0  0  0
 21 22  2  0  0  0  0
 23 21  1  6  0  0  0
 23 24  1  0  0  0  0
 23 59  1  0  0  0  0
 24 25  1  0  0  0  0
 24 63  1  0  0  0  0
 24 64  1  0  0  0  0
 25 26  1  0  0  0  0
 25 51  1  0  0  0  0
 26 27  1  0  0  0  0
 26 49  1  0  0  0  0
 26 50  1  0  0  0  0
 27 28  1  0  0  0  0
 27 47  1  0  0  0  0
 27 48  1  0  0  0  0
 28 29  1  0  0  0  0
 28 39  1  0  0  0  0
 28 46  1  6  0  0  0
 29 30  1  0  0  0  0
 29 44  1  0  0  0  0
 29 45  1  0  0  0  0
 30 31  1  0  0  0  0
 30 42  1  0  0  0  0
 30 43  1  0  0  0  0
 31 32  1  0  0  0  0
 31 34  1  0  0  0  0
 31 39  1  0  0  0  0
 32 33  1  0  0  0  0
 32 37  1  0  0  0  0
 32 38  1  0  0  0  0
 33 34  1  0  0  0  0
 34 35  1  0  0  0  0
 34 36  1  0  0  0  0
 39 40  1  0  0  0  0
 39 41  1  0  0  0  0
 51 52  2  0  0  0  0
 51 53  1  0  0  0  0
 53 54  2  0  0  0  0
 53 59  1  0  0  0  0
 54 55  1  0  0  0  0
 54 62  1  0  0  0  0
 55 56  2  0  0  0  0
 55 61  1  0  0  0  0
 56 57  1  0  0  0  0
 56 58  1  0  0  0  0
 58 59  2  0  0  0  0
 58 60  1  0  0  0  0
M  CHG  1  28   1
M  END
>  <MODEL>
       8

$$$$
best_conformers_62.pdb
 OpenBabel02042510453D

 70 76  0  0  1  0  0  0  0  0999 V2000
    7.1880   -3.6010   23.2320 C   0  0  0  0  0  0  0  0  0  0  0  0
    7.5080   -2.4220   22.3100 C   0  0  1  0  0  0  0  0  0  0  0  0
    6.4190   -2.1780   21.2500 C   0  0  0  0  0  0  0  0  0  0  0  0
    6.4820   -0.7540   20.9870 N   0  0  0  0  0  0  0  0  0  0  0  0
    5.8570   -0.1420   19.8680 C   0  0  0  0  0  0  0  0  0  0  0  0
    6.2640   -0.4530   18.5930 C   0  0  0  0  0  0  0  0  0  0  0  0
    5.7700    0.1150   17.4630 N   0  0  0  0  0  0  0  0  0  0  0  0
    4.8060    0.9940   17.6070 C   0  0  0  0  0  0  0  0  0  0  0  0
    4.2430    1.3650   18.8620 C   0  0  0  0  0  0  0  0  0  0  0  0
    3.1790    2.3070   18.9550 C   0  0  0  0  0  0  0  0  0  0  0  0
    2.6320    2.6210   20.1680 C   0  0  0  0  0  0  0  0  0  0  0  0
    3.1180    2.0020   21.3410 C   0  0  0  0  0  0  0  0  0  0  0  0
    4.1470    1.0970   21.2760 C   0  0  0  0  0  0  0  0  0  0  0  0
    4.7610    0.7700   20.0340 C   0  0  0  0  0  0  0  0  0  0  0  0
    4.5110    0.6320   22.1830 H   0  0  0  0  0  0  0  0  0  0  0  0
    2.6830    2.2550   22.3030 H   0  0  0  0  0  0  0  0  0  0  0  0
    1.8280    3.3500   20.2390 H   0  0  0  0  0  0  0  0  0  0  0  0
    2.8190    2.7730   18.0400 H   0  0  0  0  0  0  0  0  0  0  0  0
    4.4150    1.4580   16.6990 H   0  0  0  0  0  0  0  0  0  0  0  0
    7.0520   -1.1870   18.4280 H   0  0  0  0  0  0  0  0  0  0  0  0
    7.1840   -0.0430   21.9330 C   0  0  0  0  0  0  0  0  0  0  0  0
    7.3040    1.1690   21.9240 O   0  0  0  0  0  0  0  0  0  0  0  0
    7.7340   -1.0230   22.9940 C   0  0  1  0  0  0  0  0  0  0  0  0
    6.9080   -0.8060   24.2910 C   0  0  0  0  0  0  0  0  0  0  0  0
    7.4620   -1.5050   25.4370 N   0  0  0  0  0  0  0  0  0  0  0  0
    6.5660   -2.0420   26.4460 C   0  0  0  0  0  0  0  0  0  0  0  0
    6.0820   -0.9750   27.4240 C   0  0  0  0  0  0  0  0  0  0  0  0
    5.2190   -1.5420   28.4980 N   0  3  2  0  0  0  0  0  0  0  0  0
    3.8840   -2.1070   28.0260 C   0  0  0  0  0  0  0  0  0  0  0  0
    2.9480   -2.0350   29.2380 C   0  0  0  0  0  0  0  0  0  0  0  0
    3.5680   -1.0300   30.2190 C   0  0  0  0  0  0  0  0  0  0  0  0
    2.6610    0.0730   30.7970 C   0  0  0  0  0  0  0  0  0  0  0  0
    2.8220   -0.4110   32.1360 O   0  0  0  0  0  0  0  0  0  0  0  0
    3.6760   -1.4730   31.6950 C   0  0  0  0  0  0  0  0  0  0  0  0
    3.2560   -2.4610   31.9260 H   0  0  0  0  0  0  0  0  0  0  0  0
    4.6800   -1.4090   32.1370 H   0  0  0  0  0  0  0  0  0  0  0  0
    3.0290    1.1030   30.6850 H   0  0  0  0  0  0  0  0  0  0  0  0
    1.6130    0.0450   30.4680 H   0  0  0  0  0  0  0  0  0  0  0  0
    4.8560   -0.5410   29.5590 C   0  0  0  0  0  0  0  0  0  0  0  0
    5.6860   -0.4360   30.2630 H   0  0  0  0  0  0  0  0  0  0  0  0
    4.7030    0.4250   29.0650 H   0  0  0  0  0  0  0  0  0  0  0  0
    2.8430   -3.0130   29.7190 H   0  0  0  0  0  0  0  0  0  0  0  0
    1.9440   -1.7220   28.9370 H   0  0  0  0  0  0  0  0  0  0  0  0
    3.5390   -1.4770   27.2040 H   0  0  0  0  0  0  0  0  0  0  0  0
    4.0190   -3.1200   27.6490 H   0  0  0  0  0  0  0  0  0  0  0  0
    5.7600   -2.3100   28.9560 H   0  0  0  0  0  0  0  0  0  0  0  0
    6.9450   -0.4750   27.8780 H   0  0  0  0  0  0  0  0  0  0  0  0
    5.4970   -0.2150   26.8850 H   0  0  0  0  0  0  0  0  0  0  0  0
    7.1100   -2.8200   26.9880 H   0  0  0  0  0  0  0  0  0  0  0  0
    5.7140   -2.4980   25.9250 H   0  0  0  0  0  0  0  0  0  0  0  0
    8.7870   -1.4060   25.7350 C   0  0  0  0  0  0  0  0  0  0  0  0
    9.2430   -1.7050   26.8300 O   0  0  0  0  0  0  0  0  0  0  0  0
    9.6770   -0.9460   24.6260 C   0  0  0  0  0  0  0  0  0  0  0  0
   11.0250   -0.7750   24.9310 C   0  0  0  0  0  0  0  0  0  0  0  0
   11.9040   -0.4190   23.9330 C   0  0  0  0  0  0  0  0  0  0  0  0
   11.4520   -0.2470   22.6290 C   0  0  0  0  0  0  0  0  0  0  0  0
   12.6920    0.2100   21.4980 Cl  0  0  0  0  0  0  0  0  0  0  0  0
   10.1150   -0.4290   22.3030 C   0  0  0  0  0  0  0  0  0  0  0  0
    9.2020   -0.7620   23.3200 C   0  0  0  0  0  0  0  0  0  0  0  0
    9.7580   -0.3090   21.2850 H   0  0  0  0  0  0  0  0  0  0  0  0
   12.9580   -0.2780   24.1240 H   0  0  0  0  0  0  0  0  0  0  0  0
   11.3530   -0.9440   25.9540 H   0  0  0  0  0  0  0  0  0  0  0  0
    5.8840   -1.1710   24.1510 H   0  0  0  0  0  0  0  0  0  0  0  0
    6.8740    0.2830   24.4640 H   0  0  0  0  0  0  0  0  0  0  0  0
    6.5890   -2.7230   20.3240 H   0  0  0  0  0  0  0  0  0  0  0  0
    5.4250   -2.4750   21.6150 H   0  0  0  0  0  0  0  0  0  0  0  0
    8.4540   -2.6300   21.7930 H   0  0  0  0  0  0  0  0  0  0  0  0
    7.9460   -3.7170   24.0110 H   0  0  0  0  0  0  0  0  0  0  0  0
    6.2230   -3.4670   23.7330 H   0  0  0  0  0  0  0  0  0  0  0  0
    7.1330   -4.5350   22.6670 H   0  0  0  0  0  0  0  0  0  0  0  0
  1  2  1  0  0  0  0
  1 68  1  0  0  0  0
  1 69  1  0  0  0  0
  1 70  1  0  0  0  0
  2  3  1  0  0  0  0
  2 23  1  0  0  0  0
  2 67  1  6  0  0  0
  3  4  1  0  0  0  0
  3 65  1  0  0  0  0
  3 66  1  0  0  0  0
  4  5  1  0  0  0  0
  4 21  1  0  0  0  0
  5  6  2  0  0  0  0
  5 14  1  0  0  0  0
  6  7  1  0  0  0  0
  6 20  1  0  0  0  0
  7  8  2  0  0  0  0
  8  9  1  0  0  0  0
  8 19  1  0  0  0  0
  9 10  2  0  0  0  0
  9 14  1  0  0  0  0
 10 11  1  0  0  0  0
 10 18  1  0  0  0  0
 11 12  2  0  0  0  0
 11 17  1  0  0  0  0
 12 13  1  0  0  0  0
 12 16  1  0  0  0  0
 13 14  2  0  0  0  0
 13 15  1  0  0  0  0
 21 22  2  0  0  0  0
 23 21  1  6  0  0  0
 23 24  1  0  0  0  0
 23 59  1  0  0  0  0
 24 25  1  0  0  0  0
 24 63  1  0  0  0  0
 24 64  1  0  0  0  0
 25 26  1  0  0  0  0
 25 51  1  0  0  0  0
 26 27  1  0  0  0  0
 26 49  1  0  0  0  0
 26 50  1  0  0  0  0
 27 28  1  0  0  0  0
 27 47  1  0  0  0  0
 27 48  1  0  0  0  0
 28 29  1  0  0  0  0
 28 39  1  0  0  0  0
 28 46  1  1  0  0  0
 29 30  1  0  0  0  0
 29 44  1  0  0  0  0
 29 45  1  0  0  0  0
 30 31  1  0  0  0  0
 30 42  1  0  0  0  0
 30 43  1  0  0  0  0
 31 32  1  0  0  0  0
 31 34  1  0  0  0  0
 31 39  1  0  0  0  0
 32 33  1  0  0  0  0
 32 37  1  0  0  0  0
 32 38  1  0  0  0  0
 33 34  1  0  0  0  0
 34 35  1  0  0  0  0
 34 36  1  0  0  0  0
 39 40  1  0  0  0  0
 39 41  1  0  0  0  0
 51 52  2  0  0  0  0
 51 53  1  0  0  0  0
 53 54  2  0  0  0  0
 53 59  1  0  0  0  0
 54 55  1  0  0  0  0
 54 62  1  0  0  0  0
 55 56  2  0  0  0  0
 55 61  1  0  0  0  0
 56 57  1  0  0  0  0
 56 58  1  0  0  0  0
 58 59  2  0  0  0  0
 58 60  1  0  0  0  0
M  CHG  1  28   1
M  END
>  <MODEL>
       9

$$$$
best_conformers_62.pdb
 OpenBabel02042510453D

 70 76  0  0  1  0  0  0  0  0999 V2000
    7.1770   -3.5800   23.2290 C   0  0  0  0  0  0  0  0  0  0  0  0
    7.4840   -2.3910   22.3240 C   0  0  1  0  0  0  0  0  0  0  0  0
    6.4030   -2.1590   21.2610 C   0  0  0  0  0  0  0  0  0  0  0  0
    6.4750   -0.7430   20.9930 N   0  0  0  0  0  0  0  0  0  0  0  0
    5.8510   -0.1390   19.8780 C   0  0  0  0  0  0  0  0  0  0  0  0
    6.2690   -0.4550   18.6100 C   0  0  0  0  0  0  0  0  0  0  0  0
    5.7880    0.1080   17.4740 N   0  0  0  0  0  0  0  0  0  0  0  0
    4.8210    0.9860   17.6120 C   0  0  0  0  0  0  0  0  0  0  0  0
    4.2580    1.3640   18.8640 C   0  0  0  0  0  0  0  0  0  0  0  0
    3.2000    2.3060   18.9500 C   0  0  0  0  0  0  0  0  0  0  0  0
    2.6460    2.6240   20.1580 C   0  0  0  0  0  0  0  0  0  0  0  0
    3.1180    2.0080   21.3400 C   0  0  0  0  0  0  0  0  0  0  0  0
    4.1440    1.1020   21.2860 C   0  0  0  0  0  0  0  0  0  0  0  0
    4.7630    0.7750   20.0450 C   0  0  0  0  0  0  0  0  0  0  0  0
    4.4940    0.6360   22.2030 H   0  0  0  0  0  0  0  0  0  0  0  0
    2.6700    2.2610   22.2970 H   0  0  0  0  0  0  0  0  0  0  0  0
    1.8440    3.3530   20.2220 H   0  0  0  0  0  0  0  0  0  0  0  0
    2.8440    2.7680   18.0320 H   0  0  0  0  0  0  0  0  0  0  0  0
    4.4220    1.4400   16.7030 H   0  0  0  0  0  0  0  0  0  0  0  0
    7.0670   -1.1860   18.4680 H   0  0  0  0  0  0  0  0  0  0  0  0
    7.1460   -0.0310   21.9560 C   0  0  0  0  0  0  0  0  0  0  0  0
    7.2580    1.1790   21.9480 O   0  0  0  0  0  0  0  0  0  0  0  0
    7.6670   -1.0020   23.0290 C   0  0  1  0  0  0  0  0  0  0  0  0
    6.7830   -0.7860   24.2810 C   0  0  0  0  0  0  0  0  0  0  0  0
    7.3040   -1.4150   25.4840 N   0  0  0  0  0  0  0  0  0  0  0  0
    6.3940   -1.8260   26.5450 C   0  0  0  0  0  0  0  0  0  0  0  0
    6.3730   -3.3470   26.7720 C   0  0  0  0  0  0  0  0  0  0  0  0
    5.8760   -3.7600   28.1350 N   0  3  2  0  0  0  0  0  0  0  0  0
    4.4440   -3.3850   28.4400 C   0  0  0  0  0  0  0  0  0  0  0  0
    4.3800   -3.2420   29.9580 C   0  0  0  0  0  0  0  0  0  0  0  0
    5.7620   -2.7400   30.3840 C   0  0  0  0  0  0  0  0  0  0  0  0
    5.9090   -1.2140   30.5290 C   0  0  0  0  0  0  0  0  0  0  0  0
    6.3130   -1.3030   31.8950 O   0  0  0  0  0  0  0  0  0  0  0  0
    6.0000   -2.7010   31.9180 C   0  0  0  0  0  0  0  0  0  0  0  0
    6.7630   -3.2880   32.4330 H   0  0  0  0  0  0  0  0  0  0  0  0
    5.0410   -2.8730   32.4230 H   0  0  0  0  0  0  0  0  0  0  0  0
    6.6980   -0.7600   29.9370 H   0  0  0  0  0  0  0  0  0  0  0  0
    4.9720   -0.6560   30.3920 H   0  0  0  0  0  0  0  0  0  0  0  0
    6.7230   -3.3730   29.3600 C   0  0  0  0  0  0  0  0  0  0  0  0
    7.5130   -2.6980   29.0300 H   0  0  0  0  0  0  0  0  0  0  0  0
    7.2000   -4.2790   29.7300 H   0  0  0  0  0  0  0  0  0  0  0  0
    3.5960   -2.5500   30.2850 H   0  0  0  0  0  0  0  0  0  0  0  0
    4.1690   -4.2070   30.4380 H   0  0  0  0  0  0  0  0  0  0  0  0
    4.2100   -2.4450   27.9380 H   0  0  0  0  0  0  0  0  0  0  0  0
    3.7690   -4.1600   28.0700 H   0  0  0  0  0  0  0  0  0  0  0  0
    5.8990   -4.7930   28.0980 H   0  0  0  0  0  0  0  0  0  0  0  0
    7.3770   -3.7600   26.6450 H   0  0  0  0  0  0  0  0  0  0  0  0
    5.7340   -3.8250   26.0160 H   0  0  0  0  0  0  0  0  0  0  0  0
    5.4010   -1.4580   26.2750 H   0  0  0  0  0  0  0  0  0  0  0  0
    6.7040   -1.3210   27.4630 H   0  0  0  0  0  0  0  0  0  0  0  0
    8.6320   -1.4150   25.7780 C   0  0  0  0  0  0  0  0  0  0  0  0
    9.0620   -1.8300   26.8470 O   0  0  0  0  0  0  0  0  0  0  0  0
    9.5510   -0.9250   24.7140 C   0  0  0  0  0  0  0  0  0  0  0  0
   10.8860   -0.7500   25.0640 C   0  0  0  0  0  0  0  0  0  0  0  0
   11.8060   -0.3600   24.1130 C   0  0  0  0  0  0  0  0  0  0  0  0
   11.3720   -0.1650   22.8020 C   0  0  0  0  0  0  0  0  0  0  0  0
   12.5720    0.3250   21.6430 Cl  0  0  0  0  0  0  0  0  0  0  0  0
   10.0470   -0.3510   22.4330 C   0  0  0  0  0  0  0  0  0  0  0  0
    9.1080   -0.7220   23.4040 C   0  0  0  0  0  0  0  0  0  0  0  0
    9.7370   -0.2150   21.4010 H   0  0  0  0  0  0  0  0  0  0  0  0
   12.8540   -0.2220   24.3590 H   0  0  0  0  0  0  0  0  0  0  0  0
   11.1640   -0.9350   26.0960 H   0  0  0  0  0  0  0  0  0  0  0  0
    5.7860   -1.1910   24.0910 H   0  0  0  0  0  0  0  0  0  0  0  0
    6.6750    0.3000   24.4130 H   0  0  0  0  0  0  0  0  0  0  0  0
    6.5660   -2.7080   20.3370 H   0  0  0  0  0  0  0  0  0  0  0  0
    5.4050   -2.4390   21.6220 H   0  0  0  0  0  0  0  0  0  0  0  0
    8.4320   -2.5820   21.8020 H   0  0  0  0  0  0  0  0  0  0  0  0
    7.1620   -4.5120   22.6590 H   0  0  0  0  0  0  0  0  0  0  0  0
    6.1960   -3.4740   23.7050 H   0  0  0  0  0  0  0  0  0  0  0  0
    7.9220   -3.6830   24.0230 H   0  0  0  0  0  0  0  0  0  0  0  0
  1  2  1  0  0  0  0
  1 68  1  0  0  0  0
  1 69  1  0  0  0  0
  1 70  1  0  0  0  0
  2  3  1  0  0  0  0
  2 23  1  0  0  0  0
  2 67  1  6  0  0  0
  3  4  1  0  0  0  0
  3 65  1  0  0  0  0
  3 66  1  0  0  0  0
  4  5  1  0  0  0  0
  4 21  1  0  0  0  0
  5  6  2  0  0  0  0
  5 14  1  0  0  0  0
  6  7  1  0  0  0  0
  6 20  1  0  0  0  0
  7  8  2  0  0  0  0
  8  9  1  0  0  0  0
  8 19  1  0  0  0  0
  9 10  2  0  0  0  0
  9 14  1  0  0  0  0
 10 11  1  0  0  0  0
 10 18  1  0  0  0  0
 11 12  2  0  0  0  0
 11 17  1  0  0  0  0
 12 13  1  0  0  0  0
 12 16  1  0  0  0  0
 13 14  2  0  0  0  0
 13 15  1  0  0  0  0
 21 22  2  0  0  0  0
 23 21  1  6  0  0  0
 23 24  1  0  0  0  0
 23 59  1  0  0  0  0
 24 25  1  0  0  0  0
 24 63  1  0  0  0  0
 24 64  1  0  0  0  0
 25 26  1  0  0  0  0
 25 51  1  0  0  0  0
 26 27  1  0  0  0  0
 26 49  1  0  0  0  0
 26 50  1  0  0  0  0
 27 28  1  0  0  0  0
 27 47  1  0  0  0  0
 27 48  1  0  0  0  0
 28 29  1  0  0  0  0
 28 39  1  0  0  0  0
 28 46  1  6  0  0  0
 29 30  1  0  0  0  0
 29 44  1  0  0  0  0
 29 45  1  0  0  0  0
 30 31  1  0  0  0  0
 30 42  1  0  0  0  0
 30 43  1  0  0  0  0
 31 32  1  0  0  0  0
 31 34  1  0  0  0  0
 31 39  1  0  0  0  0
 32 33  1  0  0  0  0
 32 37  1  0  0  0  0
 32 38  1  0  0  0  0
 33 34  1  0  0  0  0
 34 35  1  0  0  0  0
 34 36  1  0  0  0  0
 39 40  1  0  0  0  0
 39 41  1  0  0  0  0
 51 52  2  0  0  0  0
 51 53  1  0  0  0  0
 53 54  2  0  0  0  0
 53 59  1  0  0  0  0
 54 55  1  0  0  0  0
 54 62  1  0  0  0  0
 55 56  2  0  0  0  0
 55 61  1  0  0  0  0
 56 57  1  0  0  0  0
 56 58  1  0  0  0  0
 58 59  2  0  0  0  0
 58 60  1  0  0  0  0
M  CHG  1  28   1
M  END
>  <MODEL>
      10

$$$$
best_conformers_62.pdb
 OpenBabel02042510453D

 70 76  0  0  1  0  0  0  0  0999 V2000
    7.1820   -3.6060   23.2380 C   0  0  0  0  0  0  0  0  0  0  0  0
    7.4990   -2.4030   22.3390 C   0  0  1  0  0  0  0  0  0  0  0  0
    6.4400   -2.1790   21.2450 C   0  0  0  0  0  0  0  0  0  0  0  0
    6.4810   -0.7490   20.9910 N   0  0  0  0  0  0  0  0  0  0  0  0
    5.8570   -0.1410   19.8700 C   0  0  0  0  0  0  0  0  0  0  0  0
    6.2600   -0.4520   18.5890 C   0  0  0  0  0  0  0  0  0  0  0  0
    5.7630    0.1170   17.4630 N   0  0  0  0  0  0  0  0  0  0  0  0
    4.8020    0.9980   17.6050 C   0  0  0  0  0  0  0  0  0  0  0  0
    4.2390    1.3680   18.8580 C   0  0  0  0  0  0  0  0  0  0  0  0
    3.1790    2.3130   18.9530 C   0  0  0  0  0  0  0  0  0  0  0  0
    2.6330    2.6280   20.1690 C   0  0  0  0  0  0  0  0  0  0  0  0
    3.1170    2.0020   21.3410 C   0  0  0  0  0  0  0  0  0  0  0  0
    4.1450    1.0910   21.2690 C   0  0  0  0  0  0  0  0  0  0  0  0
    4.7580    0.7700   20.0260 C   0  0  0  0  0  0  0  0  0  0  0  0
    4.5050    0.6220   22.1760 H   0  0  0  0  0  0  0  0  0  0  0  0
    2.6850    2.2550   22.3040 H   0  0  0  0  0  0  0  0  0  0  0  0
    1.8300    3.3580   20.2430 H   0  0  0  0  0  0  0  0  0  0  0  0
    2.8170    2.7820   18.0410 H   0  0  0  0  0  0  0  0  0  0  0  0
    4.4150    1.4630   16.7000 H   0  0  0  0  0  0  0  0  0  0  0  0
    7.0450   -1.1870   18.4200 H   0  0  0  0  0  0  0  0  0  0  0  0
    7.1430   -0.0290   21.9650 C   0  0  0  0  0  0  0  0  0  0  0  0
    7.2520    1.1810   21.9650 O   0  0  0  0  0  0  0  0  0  0  0  0
    7.6580   -1.0060   23.0390 C   0  0  1  0  0  0  0  0  0  0  0  0
    6.7710   -0.8210   24.2920 C   0  0  0  0  0  0  0  0  0  0  0  0
    7.2950   -1.5220   25.4510 N   0  0  0  0  0  0  0  0  0  0  0  0
    6.3570   -2.0470   26.4370 C   0  0  0  0  0  0  0  0  0  0  0  0
    5.7910   -0.9600   27.3550 C   0  0  0  0  0  0  0  0  0  0  0  0
    4.8900   -1.5100   28.4050 N   0  3  2  0  0  0  0  0  0  0  0  0
    3.6030   -2.1330   27.8880 C   0  0  0  0  0  0  0  0  0  0  0  0
    2.5960   -2.0320   29.0450 C   0  0  0  0  0  0  0  0  0  0  0  0
    3.1410   -0.9740   30.0160 C   0  0  0  0  0  0  0  0  0  0  0  0
    3.1860   -1.3620   31.5100 C   0  0  0  0  0  0  0  0  0  0  0  0
    2.2820   -0.3090   31.8690 O   0  0  0  0  0  0  0  0  0  0  0  0
    2.1750    0.1210   30.5050 C   0  0  0  0  0  0  0  0  0  0  0  0
    1.1470    0.0500   30.1190 H   0  0  0  0  0  0  0  0  0  0  0  0
    2.5220    1.1550   30.3650 H   0  0  0  0  0  0  0  0  0  0  0  0
    2.7850   -2.3580   31.7520 H   0  0  0  0  0  0  0  0  0  0  0  0
    4.1670   -1.2560   31.9930 H   0  0  0  0  0  0  0  0  0  0  0  0
    4.4460   -0.4760   29.3980 C   0  0  0  0  0  0  0  0  0  0  0  0
    4.2920    0.4650   28.8580 H   0  0  0  0  0  0  0  0  0  0  0  0
    5.2310   -0.3140   30.1390 H   0  0  0  0  0  0  0  0  0  0  0  0
    2.4790   -2.9960   29.5580 H   0  0  0  0  0  0  0  0  0  0  0  0
    1.6040   -1.7530   28.6710 H   0  0  0  0  0  0  0  0  0  0  0  0
    3.7820   -3.1620   27.5690 H   0  0  0  0  0  0  0  0  0  0  0  0
    3.2830   -1.5510   27.0190 H   0  0  0  0  0  0  0  0  0  0  0  0
    5.4250   -2.2400   28.9250 H   0  0  0  0  0  0  0  0  0  0  0  0
    6.6200   -0.4210   27.8310 H   0  0  0  0  0  0  0  0  0  0  0  0
    5.2070   -0.2400   26.7590 H   0  0  0  0  0  0  0  0  0  0  0  0
    6.8810   -2.7990   27.0370 H   0  0  0  0  0  0  0  0  0  0  0  0
    5.5360   -2.5390   25.8930 H   0  0  0  0  0  0  0  0  0  0  0  0
    8.6140   -1.4080   25.7980 C   0  0  0  0  0  0  0  0  0  0  0  0
    9.0320   -1.7310   26.8940 O   0  0  0  0  0  0  0  0  0  0  0  0
    9.5380   -0.9040   24.7360 C   0  0  0  0  0  0  0  0  0  0  0  0
   10.8750   -0.7050   25.0770 C   0  0  0  0  0  0  0  0  0  0  0  0
   11.7860   -0.3250   24.1140 C   0  0  0  0  0  0  0  0  0  0  0  0
   11.3530   -0.1600   22.8030 C   0  0  0  0  0  0  0  0  0  0  0  0
   12.5570    0.3240   21.6490 Cl  0  0  0  0  0  0  0  0  0  0  0  0
   10.0330   -0.3700   22.4420 C   0  0  0  0  0  0  0  0  0  0  0  0
    9.0980   -0.7240   23.4240 C   0  0  0  0  0  0  0  0  0  0  0  0
    9.7190   -0.2430   21.4110 H   0  0  0  0  0  0  0  0  0  0  0  0
   12.8330   -0.1570   24.3370 H   0  0  0  0  0  0  0  0  0  0  0  0
   11.1890   -0.8740   26.0980 H   0  0  0  0  0  0  0  0  0  0  0  0
    6.7050    0.2640   24.4750 H   0  0  0  0  0  0  0  0  0  0  0  0
    5.7610   -1.2050   24.1010 H   0  0  0  0  0  0  0  0  0  0  0  0
    6.6600   -2.7110   20.3220 H   0  0  0  0  0  0  0  0  0  0  0  0
    5.4400   -2.5090   21.5730 H   0  0  0  0  0  0  0  0  0  0  0  0
    8.4690   -2.5880   21.8540 H   0  0  0  0  0  0  0  0  0  0  0  0
    7.1680   -4.5400   22.6590 H   0  0  0  0  0  0  0  0  0  0  0  0
    7.9200   -3.7090   24.0420 H   0  0  0  0  0  0  0  0  0  0  0  0
    6.1980   -3.4970   23.7130 H   0  0  0  0  0  0  0  0  0  0  0  0
  1  2  1  0  0  0  0
  1 68  1  0  0  0  0
  1 69  1  0  0  0  0
  1 70  1  0  0  0  0
  2  3  1  0  0  0  0
  2 23  1  0  0  0  0
  2 67  1  6  0  0  0
  3  4  1  0  0  0  0
  3 65  1  0  0  0  0
  3 66  1  0  0  0  0
  4  5  1  0  0  0  0
  4 21  1  0  0  0  0
  5  6  2  0  0  0  0
  5 14  1  0  0  0  0
  6  7  1  0  0  0  0
  6 20  1  0  0  0  0
  7  8  2  0  0  0  0
  8  9  1  0  0  0  0
  8 19  1  0  0  0  0
  9 10  2  0  0  0  0
  9 14  1  0  0  0  0
 10 11  1  0  0  0  0
 10 18  1  0  0  0  0
 11 12  2  0  0  0  0
 11 17  1  0  0  0  0
 12 13  1  0  0  0  0
 12 16  1  0  0  0  0
 13 14  2  0  0  0  0
 13 15  1  0  0  0  0
 21 22  2  0  0  0  0
 23 21  1  6  0  0  0
 23 24  1  0  0  0  0
 23 59  1  0  0  0  0
 24 25  1  0  0  0  0
 24 63  1  0  0  0  0
 24 64  1  0  0  0  0
 25 26  1  0  0  0  0
 25 51  1  0  0  0  0
 26 27  1  0  0  0  0
 26 49  1  0  0  0  0
 26 50  1  0  0  0  0
 27 28  1  0  0  0  0
 27 47  1  0  0  0  0
 27 48  1  0  0  0  0
 28 29  1  0  0  0  0
 28 39  1  0  0  0  0
 28 46  1  1  0  0  0
 29 30  1  0  0  0  0
 29 44  1  0  0  0  0
 29 45  1  0  0  0  0
 30 31  1  0  0  0  0
 30 42  1  0  0  0  0
 30 43  1  0  0  0  0
 31 32  1  0  0  0  0
 31 34  1  0  0  0  0
 31 39  1  0  0  0  0
 32 33  1  0  0  0  0
 32 37  1  0  0  0  0
 32 38  1  0  0  0  0
 33 34  1  0  0  0  0
 34 35  1  0  0  0  0
 34 36  1  0  0  0  0
 39 40  1  0  0  0  0
 39 41  1  0  0  0  0
 51 52  2  0  0  0  0
 51 53  1  0  0  0  0
 53 54  2  0  0  0  0
 53 59  1  0  0  0  0
 54 55  1  0  0  0  0
 54 62  1  0  0  0  0
 55 56  2  0  0  0  0
 55 61  1  0  0  0  0
 56 57  1  0  0  0  0
 56 58  1  0  0  0  0
 58 59  2  0  0  0  0
 58 60  1  0  0  0  0
M  CHG  1  28   1
M  END
>  <MODEL>
      11

$$$$
