best_conformers_27.pdb
 OpenBabel02042510453D

 46 48  0  0  1  0  0  0  0  0999 V2000
   11.2500    1.9650   23.6750 C   0  0  0  0  0  0  0  0  0  0  0  0
   10.0800    0.9760   23.6520 C   0  0  0  0  0  0  0  0  0  0  0  0
    9.9560    0.1940   22.3320 C   0  0  1  0  0  0  0  0  0  0  0  0
   11.1470   -0.7130   21.9850 C   0  0  0  0  0  0  0  0  0  0  0  0
   11.1480   -2.1240   22.5750 C   0  0  1  0  0  0  0  0  0  0  0  0
   11.7890   -2.2440   23.9530 C   0  0  0  0  0  0  0  0  0  0  0  0
   10.9980   -1.8240   24.9630 F   0  0  0  0  0  0  0  0  0  0  0  0
   12.9420   -1.5530   24.0540 F   0  0  0  0  0  0  0  0  0  0  0  0
   12.0860   -3.5280   24.2310 F   0  0  0  0  0  0  0  0  0  0  0  0
    9.7610   -2.7580   22.5210 C   0  0  0  0  0  0  0  0  0  0  0  0
    8.6550   -1.8160   22.9760 C   0  0  0  0  0  0  0  0  0  0  0  0
    8.7020   -0.5710   22.2210 N   0  0  0  0  0  0  0  0  0  0  0  0
    7.5840    0.0480   21.6740 C   0  0  0  0  0  0  0  0  0  0  0  0
    7.4710    1.2580   21.6390 O   0  0  0  0  0  0  0  0  0  0  0  0
    6.5010   -0.8490   21.0270 C   0  0  0  0  0  0  0  0  0  0  0  0
    5.8080   -0.1790   19.8540 C   0  0  0  0  0  0  0  0  0  0  0  0
    6.2320   -0.4380   18.5730 C   0  0  0  0  0  0  0  0  0  0  0  0
    5.7550    0.1380   17.4390 N   0  0  0  0  0  0  0  0  0  0  0  0
    4.7840    1.0120   17.5820 C   0  0  0  0  0  0  0  0  0  0  0  0
    4.2300    1.3800   18.8380 C   0  0  0  0  0  0  0  0  0  0  0  0
    3.1790    2.3300   18.9380 C   0  0  0  0  0  0  0  0  0  0  0  0
    2.6600    2.6650   20.1620 C   0  0  0  0  0  0  0  0  0  0  0  0
    3.1730    2.0630   21.3320 C   0  0  0  0  0  0  0  0  0  0  0  0
    4.1930    1.1420   21.2600 C   0  0  0  0  0  0  0  0  0  0  0  0
    4.7530    0.7760   20.0090 C   0  0  0  0  0  0  0  0  0  0  0  0
    4.5940    0.7090   22.1710 H   0  0  0  0  0  0  0  0  0  0  0  0
    2.7630    2.3400   22.2970 H   0  0  0  0  0  0  0  0  0  0  0  0
    1.8590    3.3950   20.2400 H   0  0  0  0  0  0  0  0  0  0  0  0
    2.7990    2.7920   18.0290 H   0  0  0  0  0  0  0  0  0  0  0  0
    4.3970    1.4890   16.6790 H   0  0  0  0  0  0  0  0  0  0  0  0
    7.0230   -1.1670   18.4030 H   0  0  0  0  0  0  0  0  0  0  0  0
    6.9670   -1.7820   20.6790 H   0  0  0  0  0  0  0  0  0  0  0  0
    5.7680   -1.1350   21.7920 H   0  0  0  0  0  0  0  0  0  0  0  0
    7.6800   -2.2870   22.8360 H   0  0  0  0  0  0  0  0  0  0  0  0
    8.7520   -1.6270   24.0530 H   0  0  0  0  0  0  0  0  0  0  0  0
    9.7370   -3.6880   23.0960 H   0  0  0  0  0  0  0  0  0  0  0  0
    9.5580   -3.0290   21.4830 H   0  0  0  0  0  0  0  0  0  0  0  0
   11.8260   -2.7300   21.9630 H   0  0  0  0  0  0  0  0  0  0  0  0
   11.1440   -0.8490   20.9010 H   0  0  0  0  0  0  0  0  0  0  0  0
   12.0960   -0.2170   22.2100 H   0  0  0  0  0  0  0  0  0  0  0  0
    9.9080    0.9500   21.5440 H   0  0  0  0  0  0  0  0  0  0  0  0
   10.1730    0.2840   24.4920 H   0  0  0  0  0  0  0  0  0  0  0  0
    9.1460    1.5330   23.7800 H   0  0  0  0  0  0  0  0  0  0  0  0
   11.1840    2.6430   24.5300 H   0  0  0  0  0  0  0  0  0  0  0  0
   12.2230    1.4650   23.7340 H   0  0  0  0  0  0  0  0  0  0  0  0
   11.2520    2.6140   22.7950 H   0  0  0  0  0  0  0  0  0  0  0  0
  1  2  1  0  0  0  0
  1 44  1  0  0  0  0
  1 45  1  0  0  0  0
  1 46  1  0  0  0  0
  2  3  1  0  0  0  0
  2 42  1  0  0  0  0
  2 43  1  0  0  0  0
  3  4  1  0  0  0  0
  3 12  1  0  0  0  0
  3 41  1  6  0  0  0
  4  5  1  0  0  0  0
  4 39  1  0  0  0  0
  4 40  1  0  0  0  0
  5  6  1  0  0  0  0
  5 10  1  0  0  0  0
  5 38  1  6  0  0  0
  6  7  1  0  0  0  0
  6  8  1  0  0  0  0
  6  9  1  0  0  0  0
 10 11  1  0  0  0  0
 10 36  1  0  0  0  0
 10 37  1  0  0  0  0
 11 12  1  0  0  0  0
 11 34  1  0  0  0  0
 11 35  1  0  0  0  0
 12 13  1  0  0  0  0
 13 14  2  0  0  0  0
 13 15  1  0  0  0  0
 15 16  1  0  0  0  0
 15 32  1  0  0  0  0
 15 33  1  0  0  0  0
 16 17  2  0  0  0  0
 16 25  1  0  0  0  0
 17 18  1  0  0  0  0
 17 31  1  0  0  0  0
 18 19  2  0  0  0  0
 19 20  1  0  0  0  0
 19 30  1  0  0  0  0
 20 21  2  0  0  0  0
 20 25  1  0  0  0  0
 21 22  1  0  0  0  0
 21 29  1  0  0  0  0
 22 23  2  0  0  0  0
 22 28  1  0  0  0  0
 23 24  1  0  0  0  0
 23 27  1  0  0  0  0
 24 25  2  0  0  0  0
 24 26  1  0  0  0  0
M  END
>  <MODEL>
       1

$$$$
best_conformers_27.pdb
 OpenBabel02042510453D

 46 48  0  0  1  0  0  0  0  0999 V2000
   11.2500    1.9640   23.6750 C   0  0  0  0  0  0  0  0  0  0  0  0
   10.0800    0.9760   23.6510 C   0  0  0  0  0  0  0  0  0  0  0  0
    9.9560    0.1940   22.3320 C   0  0  1  0  0  0  0  0  0  0  0  0
   11.1470   -0.7140   21.9850 C   0  0  0  0  0  0  0  0  0  0  0  0
   11.1480   -2.1240   22.5750 C   0  0  1  0  0  0  0  0  0  0  0  0
   11.7890   -2.2440   23.9530 C   0  0  0  0  0  0  0  0  0  0  0  0
   12.9420   -1.5540   24.0530 F   0  0  0  0  0  0  0  0  0  0  0  0
   10.9980   -1.8240   24.9630 F   0  0  0  0  0  0  0  0  0  0  0  0
   12.0860   -3.5290   24.2300 F   0  0  0  0  0  0  0  0  0  0  0  0
    9.7610   -2.7580   22.5210 C   0  0  0  0  0  0  0  0  0  0  0  0
    8.6550   -1.8160   22.9760 C   0  0  0  0  0  0  0  0  0  0  0  0
    8.7020   -0.5710   22.2210 N   0  0  0  0  0  0  0  0  0  0  0  0
    7.5840    0.0470   21.6740 C   0  0  0  0  0  0  0  0  0  0  0  0
    7.4710    1.2580   21.6390 O   0  0  0  0  0  0  0  0  0  0  0  0
    6.5010   -0.8490   21.0270 C   0  0  0  0  0  0  0  0  0  0  0  0
    5.8080   -0.1790   19.8540 C   0  0  0  0  0  0  0  0  0  0  0  0
    6.2320   -0.4380   18.5730 C   0  0  0  0  0  0  0  0  0  0  0  0
    5.7550    0.1380   17.4390 N   0  0  0  0  0  0  0  0  0  0  0  0
    4.7840    1.0120   17.5820 C   0  0  0  0  0  0  0  0  0  0  0  0
    4.2300    1.3800   18.8380 C   0  0  0  0  0  0  0  0  0  0  0  0
    3.1790    2.3300   18.9380 C   0  0  0  0  0  0  0  0  0  0  0  0
    2.6600    2.6650   20.1620 C   0  0  0  0  0  0  0  0  0  0  0  0
    3.1730    2.0630   21.3320 C   0  0  0  0  0  0  0  0  0  0  0  0
    4.1930    1.1420   21.2600 C   0  0  0  0  0  0  0  0  0  0  0  0
    4.7530    0.7760   20.0090 C   0  0  0  0  0  0  0  0  0  0  0  0
    4.5940    0.7090   22.1710 H   0  0  0  0  0  0  0  0  0  0  0  0
    2.7630    2.3400   22.2970 H   0  0  0  0  0  0  0  0  0  0  0  0
    1.8590    3.3950   20.2400 H   0  0  0  0  0  0  0  0  0  0  0  0
    2.7990    2.7920   18.0290 H   0  0  0  0  0  0  0  0  0  0  0  0
    4.3970    1.4890   16.6790 H   0  0  0  0  0  0  0  0  0  0  0  0
    7.0230   -1.1670   18.4030 H   0  0  0  0  0  0  0  0  0  0  0  0
    5.7680   -1.1350   21.7920 H   0  0  0  0  0  0  0  0  0  0  0  0
    6.9670   -1.7820   20.6790 H   0  0  0  0  0  0  0  0  0  0  0  0
    7.6800   -2.2870   22.8360 H   0  0  0  0  0  0  0  0  0  0  0  0
    8.7530   -1.6270   24.0530 H   0  0  0  0  0  0  0  0  0  0  0  0
    9.5580   -3.0290   21.4830 H   0  0  0  0  0  0  0  0  0  0  0  0
    9.7370   -3.6880   23.0960 H   0  0  0  0  0  0  0  0  0  0  0  0
   11.8260   -2.7300   21.9630 H   0  0  0  0  0  0  0  0  0  0  0  0
   11.1440   -0.8490   20.9010 H   0  0  0  0  0  0  0  0  0  0  0  0
   12.0960   -0.2170   22.2100 H   0  0  0  0  0  0  0  0  0  0  0  0
    9.9080    0.9500   21.5440 H   0  0  0  0  0  0  0  0  0  0  0  0
    9.1460    1.5320   23.7800 H   0  0  0  0  0  0  0  0  0  0  0  0
   10.1730    0.2840   24.4920 H   0  0  0  0  0  0  0  0  0  0  0  0
   12.2230    1.4640   23.7340 H   0  0  0  0  0  0  0  0  0  0  0  0
   11.2520    2.6130   22.7940 H   0  0  0  0  0  0  0  0  0  0  0  0
   11.1850    2.6420   24.5290 H   0  0  0  0  0  0  0  0  0  0  0  0
  1  2  1  0  0  0  0
  1 44  1  0  0  0  0
  1 45  1  0  0  0  0
  1 46  1  0  0  0  0
  2  3  1  0  0  0  0
  2 42  1  0  0  0  0
  2 43  1  0  0  0  0
  3  4  1  0  0  0  0
  3 12  1  0  0  0  0
  3 41  1  6  0  0  0
  4  5  1  0  0  0  0
  4 39  1  0  0  0  0
  4 40  1  0  0  0  0
  5  6  1  0  0  0  0
  5 10  1  0  0  0  0
  5 38  1  6  0  0  0
  6  7  1  0  0  0  0
  6  8  1  0  0  0  0
  6  9  1  0  0  0  0
 10 11  1  0  0  0  0
 10 36  1  0  0  0  0
 10 37  1  0  0  0  0
 11 12  1  0  0  0  0
 11 34  1  0  0  0  0
 11 35  1  0  0  0  0
 12 13  1  0  0  0  0
 13 14  2  0  0  0  0
 13 15  1  0  0  0  0
 15 16  1  0  0  0  0
 15 32  1  0  0  0  0
 15 33  1  0  0  0  0
 16 17  2  0  0  0  0
 16 25  1  0  0  0  0
 17 18  1  0  0  0  0
 17 31  1  0  0  0  0
 18 19  2  0  0  0  0
 19 20  1  0  0  0  0
 19 30  1  0  0  0  0
 20 21  2  0  0  0  0
 20 25  1  0  0  0  0
 21 22  1  0  0  0  0
 21 29  1  0  0  0  0
 22 23  2  0  0  0  0
 22 28  1  0  0  0  0
 23 24  1  0  0  0  0
 23 27  1  0  0  0  0
 24 25  2  0  0  0  0
 24 26  1  0  0  0  0
M  END
>  <MODEL>
       2

$$$$
best_conformers_27.pdb
 OpenBabel02042510453D

 46 48  0  0  1  0  0  0  0  0999 V2000
   11.2490    1.9650   23.6750 C   0  0  0  0  0  0  0  0  0  0  0  0
   10.0800    0.9760   23.6520 C   0  0  0  0  0  0  0  0  0  0  0  0
    9.9560    0.1940   22.3320 C   0  0  1  0  0  0  0  0  0  0  0  0
   11.1470   -0.7130   21.9850 C   0  0  0  0  0  0  0  0  0  0  0  0
   11.1480   -2.1240   22.5760 C   0  0  1  0  0  0  0  0  0  0  0  0
   11.7880   -2.2440   23.9530 C   0  0  0  0  0  0  0  0  0  0  0  0
   10.9970   -1.8240   24.9630 F   0  0  0  0  0  0  0  0  0  0  0  0
   12.0860   -3.5280   24.2310 F   0  0  0  0  0  0  0  0  0  0  0  0
   12.9420   -1.5530   24.0540 F   0  0  0  0  0  0  0  0  0  0  0  0
    9.7610   -2.7580   22.5210 C   0  0  0  0  0  0  0  0  0  0  0  0
    8.6550   -1.8160   22.9770 C   0  0  0  0  0  0  0  0  0  0  0  0
    8.7020   -0.5710   22.2210 N   0  0  0  0  0  0  0  0  0  0  0  0
    7.5840    0.0480   21.6740 C   0  0  0  0  0  0  0  0  0  0  0  0
    7.4710    1.2580   21.6390 O   0  0  0  0  0  0  0  0  0  0  0  0
    6.5010   -0.8490   21.0270 C   0  0  0  0  0  0  0  0  0  0  0  0
    5.8080   -0.1790   19.8540 C   0  0  0  0  0  0  0  0  0  0  0  0
    6.2320   -0.4380   18.5730 C   0  0  0  0  0  0  0  0  0  0  0  0
    5.7550    0.1380   17.4390 N   0  0  0  0  0  0  0  0  0  0  0  0
    4.7840    1.0120   17.5820 C   0  0  0  0  0  0  0  0  0  0  0  0
    4.2300    1.3800   18.8380 C   0  0  0  0  0  0  0  0  0  0  0  0
    3.1790    2.3300   18.9380 C   0  0  0  0  0  0  0  0  0  0  0  0
    2.6600    2.6650   20.1620 C   0  0  0  0  0  0  0  0  0  0  0  0
    3.1730    2.0630   21.3320 C   0  0  0  0  0  0  0  0  0  0  0  0
    4.1930    1.1420   21.2600 C   0  0  0  0  0  0  0  0  0  0  0  0
    4.7530    0.7760   20.0090 C   0  0  0  0  0  0  0  0  0  0  0  0
    4.5940    0.7090   22.1710 H   0  0  0  0  0  0  0  0  0  0  0  0
    2.7630    2.3400   22.2970 H   0  0  0  0  0  0  0  0  0  0  0  0
    1.8590    3.3950   20.2400 H   0  0  0  0  0  0  0  0  0  0  0  0
    2.7990    2.7920   18.0290 H   0  0  0  0  0  0  0  0  0  0  0  0
    4.3970    1.4890   16.6790 H   0  0  0  0  0  0  0  0  0  0  0  0
    7.0230   -1.1670   18.4030 H   0  0  0  0  0  0  0  0  0  0  0  0
    6.9670   -1.7820   20.6790 H   0  0  0  0  0  0  0  0  0  0  0  0
    5.7680   -1.1350   21.7920 H   0  0  0  0  0  0  0  0  0  0  0  0
    8.7520   -1.6270   24.0530 H   0  0  0  0  0  0  0  0  0  0  0  0
    7.6800   -2.2870   22.8360 H   0  0  0  0  0  0  0  0  0  0  0  0
    9.5580   -3.0290   21.4830 H   0  0  0  0  0  0  0  0  0  0  0  0
    9.7370   -3.6880   23.0960 H   0  0  0  0  0  0  0  0  0  0  0  0
   11.8260   -2.7300   21.9640 H   0  0  0  0  0  0  0  0  0  0  0  0
   11.1440   -0.8490   20.9010 H   0  0  0  0  0  0  0  0  0  0  0  0
   12.0950   -0.2170   22.2100 H   0  0  0  0  0  0  0  0  0  0  0  0
    9.9080    0.9500   21.5440 H   0  0  0  0  0  0  0  0  0  0  0  0
   10.1730    0.2840   24.4920 H   0  0  0  0  0  0  0  0  0  0  0  0
    9.1460    1.5320   23.7800 H   0  0  0  0  0  0  0  0  0  0  0  0
   11.1840    2.6430   24.5300 H   0  0  0  0  0  0  0  0  0  0  0  0
   11.2510    2.6140   22.7950 H   0  0  0  0  0  0  0  0  0  0  0  0
   12.2220    1.4650   23.7340 H   0  0  0  0  0  0  0  0  0  0  0  0
  1  2  1  0  0  0  0
  1 44  1  0  0  0  0
  1 45  1  0  0  0  0
  1 46  1  0  0  0  0
  2  3  1  0  0  0  0
  2 42  1  0  0  0  0
  2 43  1  0  0  0  0
  3  4  1  0  0  0  0
  3 12  1  0  0  0  0
  3 41  1  6  0  0  0
  4  5  1  0  0  0  0
  4 39  1  0  0  0  0
  4 40  1  0  0  0  0
  5  6  1  0  0  0  0
  5 10  1  0  0  0  0
  5 38  1  6  0  0  0
  6  7  1  0  0  0  0
  6  8  1  0  0  0  0
  6  9  1  0  0  0  0
 10 11  1  0  0  0  0
 10 36  1  0  0  0  0
 10 37  1  0  0  0  0
 11 12  1  0  0  0  0
 11 34  1  0  0  0  0
 11 35  1  0  0  0  0
 12 13  1  0  0  0  0
 13 14  2  0  0  0  0
 13 15  1  0  0  0  0
 15 16  1  0  0  0  0
 15 32  1  0  0  0  0
 15 33  1  0  0  0  0
 16 17  2  0  0  0  0
 16 25  1  0  0  0  0
 17 18  1  0  0  0  0
 17 31  1  0  0  0  0
 18 19  2  0  0  0  0
 19 20  1  0  0  0  0
 19 30  1  0  0  0  0
 20 21  2  0  0  0  0
 20 25  1  0  0  0  0
 21 22  1  0  0  0  0
 21 29  1  0  0  0  0
 22 23  2  0  0  0  0
 22 28  1  0  0  0  0
 23 24  1  0  0  0  0
 23 27  1  0  0  0  0
 24 25  2  0  0  0  0
 24 26  1  0  0  0  0
M  END
>  <MODEL>
       3

$$$$
best_conformers_27.pdb
 OpenBabel02042510453D

 46 48  0  0  1  0  0  0  0  0999 V2000
    6.6820    3.5080   21.6290 C   0  0  0  0  0  0  0  0  0  0  0  0
    6.8070    2.9000   23.0230 C   0  0  0  0  0  0  0  0  0  0  0  0
    7.9710    1.8980   23.1360 C   0  0  1  0  0  0  0  0  0  0  0  0
    8.6880    1.9480   24.4740 C   0  0  0  0  0  0  0  0  0  0  0  0
    7.9940    1.1800   25.5960 C   0  0  1  0  0  0  0  0  0  0  0  0
    6.9030    1.9320   26.3380 C   0  0  0  0  0  0  0  0  0  0  0  0
    6.6650    1.3410   27.5320 F   0  0  0  0  0  0  0  0  0  0  0  0
    7.2940    3.1930   26.6200 F   0  0  0  0  0  0  0  0  0  0  0  0
    5.7200    2.0000   25.6930 F   0  0  0  0  0  0  0  0  0  0  0  0
    7.6230   -0.2220   25.1440 C   0  0  0  0  0  0  0  0  0  0  0  0
    6.8420   -0.2250   23.8410 C   0  0  0  0  0  0  0  0  0  0  0  0
    7.5740    0.5250   22.8290 N   0  0  0  0  0  0  0  0  0  0  0  0
    7.5940    0.1880   21.5000 C   0  0  0  0  0  0  0  0  0  0  0  0
    8.4010    0.6750   20.7160 O   0  0  0  0  0  0  0  0  0  0  0  0
    6.5320   -0.7810   21.0030 C   0  0  0  0  0  0  0  0  0  0  0  0
    5.8190   -0.1770   19.8330 C   0  0  0  0  0  0  0  0  0  0  0  0
    6.2650   -0.4400   18.5650 C   0  0  0  0  0  0  0  0  0  0  0  0
    5.7840    0.1250   17.4320 N   0  0  0  0  0  0  0  0  0  0  0  0
    4.8110    0.9910   17.5840 C   0  0  0  0  0  0  0  0  0  0  0  0
    4.2510    1.3750   18.8370 C   0  0  0  0  0  0  0  0  0  0  0  0
    3.2040    2.3290   18.9430 C   0  0  0  0  0  0  0  0  0  0  0  0
    2.6860    2.6680   20.1620 C   0  0  0  0  0  0  0  0  0  0  0  0
    3.1900    2.0690   21.3380 C   0  0  0  0  0  0  0  0  0  0  0  0
    4.2040    1.1400   21.2620 C   0  0  0  0  0  0  0  0  0  0  0  0
    4.7650    0.7650   20.0100 C   0  0  0  0  0  0  0  0  0  0  0  0
    4.5740    0.7040   22.1890 H   0  0  0  0  0  0  0  0  0  0  0  0
    2.7770    2.3480   22.3040 H   0  0  0  0  0  0  0  0  0  0  0  0
    1.8880    3.4030   20.2340 H   0  0  0  0  0  0  0  0  0  0  0  0
    2.8290    2.7880   18.0300 H   0  0  0  0  0  0  0  0  0  0  0  0
    4.4170    1.4470   16.6750 H   0  0  0  0  0  0  0  0  0  0  0  0
    7.0750   -1.1560   18.4440 H   0  0  0  0  0  0  0  0  0  0  0  0
    7.0530   -1.7010   20.7120 H   0  0  0  0  0  0  0  0  0  0  0  0
    5.8200   -1.0100   21.7940 H   0  0  0  0  0  0  0  0  0  0  0  0
    5.8300    0.1680   24.0080 H   0  0  0  0  0  0  0  0  0  0  0  0
    6.7370   -1.2570   23.5100 H   0  0  0  0  0  0  0  0  0  0  0  0
    8.5590   -0.7710   24.9860 H   0  0  0  0  0  0  0  0  0  0  0  0
    7.0840   -0.7520   25.9310 H   0  0  0  0  0  0  0  0  0  0  0  0
    8.6940    1.0430   26.4010 H   0  0  0  0  0  0  0  0  0  0  0  0
    8.8420    2.9940   24.7520 H   0  0  0  0  0  0  0  0  0  0  0  0
    9.6850    1.5210   24.3260 H   0  0  0  0  0  0  0  0  0  0  0  0
    8.7030    2.1340   22.3630 H   0  0  0  0  0  0  0  0  0  0  0  0
    5.8710    2.4050   23.2980 H   0  0  0  0  0  0  0  0  0  0  0  0
    6.9690    3.6920   23.7690 H   0  0  0  0  0  0  0  0  0  0  0  0
    7.5500    4.1350   21.4120 H   0  0  0  0  0  0  0  0  0  0  0  0
    6.6260    2.7440   20.8460 H   0  0  0  0  0  0  0  0  0  0  0  0
    5.7890    4.1310   21.5410 H   0  0  0  0  0  0  0  0  0  0  0  0
  1  2  1  0  0  0  0
  1 44  1  0  0  0  0
  1 45  1  0  0  0  0
  1 46  1  0  0  0  0
  2  3  1  0  0  0  0
  2 42  1  0  0  0  0
  2 43  1  0  0  0  0
  3  4  1  0  0  0  0
  3 12  1  0  0  0  0
  3 41  1  6  0  0  0
  4  5  1  0  0  0  0
  4 39  1  0  0  0  0
  4 40  1  0  0  0  0
  5  6  1  0  0  0  0
  5 10  1  0  0  0  0
  5 38  1  1  0  0  0
  6  7  1  0  0  0  0
  6  8  1  0  0  0  0
  6  9  1  0  0  0  0
 10 11  1  0  0  0  0
 10 36  1  0  0  0  0
 10 37  1  0  0  0  0
 11 12  1  0  0  0  0
 11 34  1  0  0  0  0
 11 35  1  0  0  0  0
 12 13  1  0  0  0  0
 13 14  2  0  0  0  0
 13 15  1  0  0  0  0
 15 16  1  0  0  0  0
 15 32  1  0  0  0  0
 15 33  1  0  0  0  0
 16 17  2  0  0  0  0
 16 25  1  0  0  0  0
 17 18  1  0  0  0  0
 17 31  1  0  0  0  0
 18 19  2  0  0  0  0
 19 20  1  0  0  0  0
 19 30  1  0  0  0  0
 20 21  2  0  0  0  0
 20 25  1  0  0  0  0
 21 22  1  0  0  0  0
 21 29  1  0  0  0  0
 22 23  2  0  0  0  0
 22 28  1  0  0  0  0
 23 24  1  0  0  0  0
 23 27  1  0  0  0  0
 24 25  2  0  0  0  0
 24 26  1  0  0  0  0
M  END
>  <MODEL>
       4

$$$$
best_conformers_27.pdb
 OpenBabel02042510453D

 46 48  0  0  1  0  0  0  0  0999 V2000
    6.9910   -6.1300   22.4270 C   0  0  0  0  0  0  0  0  0  0  0  0
    7.0760   -4.5930   22.4180 C   0  0  0  0  0  0  0  0  0  0  0  0
    5.8130   -3.9610   23.0470 C   0  0  1  0  0  0  0  0  0  0  0  0
    5.6900   -4.3280   24.5260 C   0  0  0  0  0  0  0  0  0  0  0  0
    4.6410   -3.4670   25.2160 C   0  0  1  0  0  0  0  0  0  0  0  0
    4.3630   -3.9410   26.6260 C   0  0  0  0  0  0  0  0  0  0  0  0
    5.4760   -3.9330   27.3920 F   0  0  0  0  0  0  0  0  0  0  0  0
    3.4490   -3.1580   27.2340 F   0  0  0  0  0  0  0  0  0  0  0  0
    3.8810   -5.2010   26.6370 F   0  0  0  0  0  0  0  0  0  0  0  0
    5.0630   -1.9900   25.1970 C   0  0  0  0  0  0  0  0  0  0  0  0
    6.0220   -1.6680   24.0270 C   0  0  0  0  0  0  0  0  0  0  0  0
    5.7690   -2.5050   22.8660 N   0  0  0  0  0  0  0  0  0  0  0  0
    5.5660   -2.0670   21.5690 C   0  0  0  0  0  0  0  0  0  0  0  0
    4.8720   -2.7020   20.7910 O   0  0  0  0  0  0  0  0  0  0  0  0
    6.3930   -0.8680   21.0560 C   0  0  0  0  0  0  0  0  0  0  0  0
    5.7890   -0.1820   19.8600 C   0  0  0  0  0  0  0  0  0  0  0  0
    6.2330   -0.4520   18.5890 C   0  0  0  0  0  0  0  0  0  0  0  0
    5.7670    0.1290   17.4490 N   0  0  0  0  0  0  0  0  0  0  0  0
    4.8000    1.0030   17.5880 C   0  0  0  0  0  0  0  0  0  0  0  0
    4.2270    1.3690   18.8360 C   0  0  0  0  0  0  0  0  0  0  0  0
    3.1760    2.3170   18.9410 C   0  0  0  0  0  0  0  0  0  0  0  0
    2.6440    2.6360   20.1600 C   0  0  0  0  0  0  0  0  0  0  0  0
    3.1420    2.0250   21.3330 C   0  0  0  0  0  0  0  0  0  0  0  0
    4.1620    1.1120   21.2610 C   0  0  0  0  0  0  0  0  0  0  0  0
    4.7320    0.7580   20.0090 C   0  0  0  0  0  0  0  0  0  0  0  0
    4.5400    0.6520   22.1700 H   0  0  0  0  0  0  0  0  0  0  0  0
    2.7170    2.2880   22.2990 H   0  0  0  0  0  0  0  0  0  0  0  0
    1.8410    3.3660   20.2360 H   0  0  0  0  0  0  0  0  0  0  0  0
    2.8140    2.7830   18.0270 H   0  0  0  0  0  0  0  0  0  0  0  0
    4.4130    1.4680   16.6780 H   0  0  0  0  0  0  0  0  0  0  0  0
    7.0290   -1.1780   18.4160 H   0  0  0  0  0  0  0  0  0  0  0  0
    6.6620   -0.1680   21.8550 H   0  0  0  0  0  0  0  0  0  0  0  0
    7.3450   -1.3040   20.7210 H   0  0  0  0  0  0  0  0  0  0  0  0
    5.8900   -0.6250   23.7310 H   0  0  0  0  0  0  0  0  0  0  0  0
    7.0620   -1.8060   24.3690 H   0  0  0  0  0  0  0  0  0  0  0  0
    4.1660   -1.3660   25.1440 H   0  0  0  0  0  0  0  0  0  0  0  0
    5.5830   -1.7410   26.1290 H   0  0  0  0  0  0  0  0  0  0  0  0
    3.6830   -3.5950   24.6960 H   0  0  0  0  0  0  0  0  0  0  0  0
    5.4020   -5.3800   24.5910 H   0  0  0  0  0  0  0  0  0  0  0  0
    6.6660   -4.2280   25.0280 H   0  0  0  0  0  0  0  0  0  0  0  0
    4.9390   -4.3300   22.4940 H   0  0  0  0  0  0  0  0  0  0  0  0
    7.9600   -4.2110   22.9550 H   0  0  0  0  0  0  0  0  0  0  0  0
    7.1560   -4.2110   21.3950 H   0  0  0  0  0  0  0  0  0  0  0  0
    7.7460   -6.6170   21.8020 H   0  0  0  0  0  0  0  0  0  0  0  0
    6.0100   -6.4580   22.0510 H   0  0  0  0  0  0  0  0  0  0  0  0
    7.0970   -6.5290   23.4420 H   0  0  0  0  0  0  0  0  0  0  0  0
  1  2  1  0  0  0  0
  1 44  1  0  0  0  0
  1 45  1  0  0  0  0
  1 46  1  0  0  0  0
  2  3  1  0  0  0  0
  2 42  1  0  0  0  0
  2 43  1  0  0  0  0
  3  4  1  0  0  0  0
  3 12  1  0  0  0  0
  3 41  1  6  0  0  0
  4  5  1  0  0  0  0
  4 39  1  0  0  0  0
  4 40  1  0  0  0  0
  5  6  1  0  0  0  0
  5 10  1  0  0  0  0
  5 38  1  6  0  0  0
  6  7  1  0  0  0  0
  6  8  1  0  0  0  0
  6  9  1  0  0  0  0
 10 11  1  0  0  0  0
 10 36  1  0  0  0  0
 10 37  1  0  0  0  0
 11 12  1  0  0  0  0
 11 34  1  0  0  0  0
 11 35  1  0  0  0  0
 12 13  1  0  0  0  0
 13 14  2  0  0  0  0
 13 15  1  0  0  0  0
 15 16  1  0  0  0  0
 15 32  1  0  0  0  0
 15 33  1  0  0  0  0
 16 17  2  0  0  0  0
 16 25  1  0  0  0  0
 17 18  1  0  0  0  0
 17 31  1  0  0  0  0
 18 19  2  0  0  0  0
 19 20  1  0  0  0  0
 19 30  1  0  0  0  0
 20 21  2  0  0  0  0
 20 25  1  0  0  0  0
 21 22  1  0  0  0  0
 21 29  1  0  0  0  0
 22 23  2  0  0  0  0
 22 28  1  0  0  0  0
 23 24  1  0  0  0  0
 23 27  1  0  0  0  0
 24 25  2  0  0  0  0
 24 26  1  0  0  0  0
M  END
>  <MODEL>
       5

$$$$
best_conformers_27.pdb
 OpenBabel02042510453D

 46 48  0  0  1  0  0  0  0  0999 V2000
    7.9310   -1.6240   24.5020 C   0  0  0  0  0  0  0  0  0  0  0  0
    9.1300   -0.9110   23.8910 C   0  0  0  0  0  0  0  0  0  0  0  0
    8.8470    0.5450   23.5200 C   0  0  1  0  0  0  0  0  0  0  0  0
   10.1270    1.3180   23.1810 C   0  0  0  0  0  0  0  0  0  0  0  0
    9.8130    2.7900   22.8990 C   0  0  1  0  0  0  0  0  0  0  0  0
   11.0700    3.5570   22.5170 C   0  0  0  0  0  0  0  0  0  0  0  0
   12.0200    3.4880   23.4710 F   0  0  0  0  0  0  0  0  0  0  0  0
   11.6250    3.0710   21.3880 F   0  0  0  0  0  0  0  0  0  0  0  0
   10.8280    4.8640   22.2920 F   0  0  0  0  0  0  0  0  0  0  0  0
    8.7330    2.9240   21.8230 C   0  0  0  0  0  0  0  0  0  0  0  0
    7.5000    2.0950   22.1960 C   0  0  0  0  0  0  0  0  0  0  0  0
    7.7940    0.6850   22.4920 N   0  0  0  0  0  0  0  0  0  0  0  0
    7.8230   -0.1990   21.3640 C   0  0  0  0  0  0  0  0  0  0  0  0
    8.8200   -0.4380   20.7200 O   0  0  0  0  0  0  0  0  0  0  0  0
    6.4860   -0.8500   21.0030 C   0  0  0  0  0  0  0  0  0  0  0  0
    5.8010   -0.1680   19.8420 C   0  0  0  0  0  0  0  0  0  0  0  0
    6.2340   -0.4360   18.5660 C   0  0  0  0  0  0  0  0  0  0  0  0
    5.7540    0.1390   17.4330 N   0  0  0  0  0  0  0  0  0  0  0  0
    4.7860    1.0120   17.5810 C   0  0  0  0  0  0  0  0  0  0  0  0
    4.2240    1.3830   18.8320 C   0  0  0  0  0  0  0  0  0  0  0  0
    3.1760    2.3330   18.9340 C   0  0  0  0  0  0  0  0  0  0  0  0
    2.6540    2.6690   20.1530 C   0  0  0  0  0  0  0  0  0  0  0  0
    3.1630    2.0700   21.3260 C   0  0  0  0  0  0  0  0  0  0  0  0
    4.1850    1.1490   21.2560 C   0  0  0  0  0  0  0  0  0  0  0  0
    4.7450    0.7770   20.0080 C   0  0  0  0  0  0  0  0  0  0  0  0
    4.5770    0.7230   22.1770 H   0  0  0  0  0  0  0  0  0  0  0  0
    2.7520    2.3470   22.2900 H   0  0  0  0  0  0  0  0  0  0  0  0
    1.8530    3.4000   20.2290 H   0  0  0  0  0  0  0  0  0  0  0  0
    2.8000    2.7920   18.0210 H   0  0  0  0  0  0  0  0  0  0  0  0
    4.3980    1.4880   16.6780 H   0  0  0  0  0  0  0  0  0  0  0  0
    7.0260   -1.1670   18.4130 H   0  0  0  0  0  0  0  0  0  0  0  0
    6.7350   -1.8780   20.7130 H   0  0  0  0  0  0  0  0  0  0  0  0
    5.8420   -0.9100   21.8860 H   0  0  0  0  0  0  0  0  0  0  0  0
    7.0290    2.5370   23.0830 H   0  0  0  0  0  0  0  0  0  0  0  0
    6.7600    2.1500   21.3920 H   0  0  0  0  0  0  0  0  0  0  0  0
    9.1220    2.5840   20.8590 H   0  0  0  0  0  0  0  0  0  0  0  0
    8.4550    3.9790   21.7020 H   0  0  0  0  0  0  0  0  0  0  0  0
    9.4650    3.2700   23.8210 H   0  0  0  0  0  0  0  0  0  0  0  0
   10.8360    1.2480   24.0170 H   0  0  0  0  0  0  0  0  0  0  0  0
   10.6080    0.8540   22.3150 H   0  0  0  0  0  0  0  0  0  0  0  0
    8.4280    1.0290   24.4130 H   0  0  0  0  0  0  0  0  0  0  0  0
    9.9560   -0.9430   24.6130 H   0  0  0  0  0  0  0  0  0  0  0  0
    9.4810   -1.4500   23.0060 H   0  0  0  0  0  0  0  0  0  0  0  0
    7.0820   -1.6540   23.8140 H   0  0  0  0  0  0  0  0  0  0  0  0
    7.5980   -1.1250   25.4190 H   0  0  0  0  0  0  0  0  0  0  0  0
    8.1770   -2.6580   24.7630 H   0  0  0  0  0  0  0  0  0  0  0  0
  1  2  1  0  0  0  0
  1 44  1  0  0  0  0
  1 45  1  0  0  0  0
  1 46  1  0  0  0  0
  2  3  1  0  0  0  0
  2 42  1  0  0  0  0
  2 43  1  0  0  0  0
  3  4  1  0  0  0  0
  3 12  1  0  0  0  0
  3 41  1  1  0  0  0
  4  5  1  0  0  0  0
  4 39  1  0  0  0  0
  4 40  1  0  0  0  0
  5  6  1  0  0  0  0
  5 10  1  0  0  0  0
  5 38  1  1  0  0  0
  6  7  1  0  0  0  0
  6  8  1  0  0  0  0
  6  9  1  0  0  0  0
 10 11  1  0  0  0  0
 10 36  1  0  0  0  0
 10 37  1  0  0  0  0
 11 12  1  0  0  0  0
 11 34  1  0  0  0  0
 11 35  1  0  0  0  0
 12 13  1  0  0  0  0
 13 14  2  0  0  0  0
 13 15  1  0  0  0  0
 15 16  1  0  0  0  0
 15 32  1  0  0  0  0
 15 33  1  0  0  0  0
 16 17  2  0  0  0  0
 16 25  1  0  0  0  0
 17 18  1  0  0  0  0
 17 31  1  0  0  0  0
 18 19  2  0  0  0  0
 19 20  1  0  0  0  0
 19 30  1  0  0  0  0
 20 21  2  0  0  0  0
 20 25  1  0  0  0  0
 21 22  1  0  0  0  0
 21 29  1  0  0  0  0
 22 23  2  0  0  0  0
 22 28  1  0  0  0  0
 23 24  1  0  0  0  0
 23 27  1  0  0  0  0
 24 25  2  0  0  0  0
 24 26  1  0  0  0  0
M  END
>  <MODEL>
       6

$$$$
best_conformers_27.pdb
 OpenBabel02042510453D

 46 48  0  0  1  0  0  0  0  0999 V2000
    7.9310   -1.6230   24.5020 C   0  0  0  0  0  0  0  0  0  0  0  0
    9.1300   -0.9110   23.8910 C   0  0  0  0  0  0  0  0  0  0  0  0
    8.8470    0.5450   23.5210 C   0  0  1  0  0  0  0  0  0  0  0  0
   10.1260    1.3180   23.1810 C   0  0  0  0  0  0  0  0  0  0  0  0
    9.8130    2.7900   22.8990 C   0  0  1  0  0  0  0  0  0  0  0  0
   11.0700    3.5570   22.5170 C   0  0  0  0  0  0  0  0  0  0  0  0
   11.6250    3.0710   21.3880 F   0  0  0  0  0  0  0  0  0  0  0  0
   10.8270    4.8640   22.2920 F   0  0  0  0  0  0  0  0  0  0  0  0
   12.0200    3.4880   23.4710 F   0  0  0  0  0  0  0  0  0  0  0  0
    8.7330    2.9240   21.8230 C   0  0  0  0  0  0  0  0  0  0  0  0
    7.5000    2.0950   22.1960 C   0  0  0  0  0  0  0  0  0  0  0  0
    7.7940    0.6850   22.4920 N   0  0  0  0  0  0  0  0  0  0  0  0
    7.8230   -0.1980   21.3640 C   0  0  0  0  0  0  0  0  0  0  0  0
    8.8200   -0.4380   20.7200 O   0  0  0  0  0  0  0  0  0  0  0  0
    6.4860   -0.8500   21.0030 C   0  0  0  0  0  0  0  0  0  0  0  0
    5.8010   -0.1680   19.8420 C   0  0  0  0  0  0  0  0  0  0  0  0
    6.2340   -0.4360   18.5660 C   0  0  0  0  0  0  0  0  0  0  0  0
    5.7540    0.1390   17.4330 N   0  0  0  0  0  0  0  0  0  0  0  0
    4.7860    1.0120   17.5810 C   0  0  0  0  0  0  0  0  0  0  0  0
    4.2240    1.3830   18.8320 C   0  0  0  0  0  0  0  0  0  0  0  0
    3.1760    2.3330   18.9340 C   0  0  0  0  0  0  0  0  0  0  0  0
    2.6540    2.6690   20.1530 C   0  0  0  0  0  0  0  0  0  0  0  0
    3.1630    2.0700   21.3260 C   0  0  0  0  0  0  0  0  0  0  0  0
    4.1850    1.1490   21.2560 C   0  0  0  0  0  0  0  0  0  0  0  0
    4.7450    0.7770   20.0080 C   0  0  0  0  0  0  0  0  0  0  0  0
    4.5770    0.7230   22.1770 H   0  0  0  0  0  0  0  0  0  0  0  0
    2.7520    2.3470   22.2900 H   0  0  0  0  0  0  0  0  0  0  0  0
    1.8530    3.4000   20.2290 H   0  0  0  0  0  0  0  0  0  0  0  0
    2.8000    2.7920   18.0210 H   0  0  0  0  0  0  0  0  0  0  0  0
    4.3980    1.4880   16.6780 H   0  0  0  0  0  0  0  0  0  0  0  0
    7.0260   -1.1670   18.4130 H   0  0  0  0  0  0  0  0  0  0  0  0
    5.8420   -0.9100   21.8860 H   0  0  0  0  0  0  0  0  0  0  0  0
    6.7350   -1.8780   20.7130 H   0  0  0  0  0  0  0  0  0  0  0  0
    7.0290    2.5370   23.0820 H   0  0  0  0  0  0  0  0  0  0  0  0
    6.7600    2.1500   21.3920 H   0  0  0  0  0  0  0  0  0  0  0  0
    9.1220    2.5840   20.8590 H   0  0  0  0  0  0  0  0  0  0  0  0
    8.4550    3.9790   21.7020 H   0  0  0  0  0  0  0  0  0  0  0  0
    9.4640    3.2700   23.8210 H   0  0  0  0  0  0  0  0  0  0  0  0
   10.8360    1.2480   24.0170 H   0  0  0  0  0  0  0  0  0  0  0  0
   10.6080    0.8540   22.3150 H   0  0  0  0  0  0  0  0  0  0  0  0
    8.4280    1.0290   24.4140 H   0  0  0  0  0  0  0  0  0  0  0  0
    9.4810   -1.4500   23.0060 H   0  0  0  0  0  0  0  0  0  0  0  0
    9.9560   -0.9430   24.6140 H   0  0  0  0  0  0  0  0  0  0  0  0
    7.0820   -1.6530   23.8140 H   0  0  0  0  0  0  0  0  0  0  0  0
    7.5980   -1.1240   25.4190 H   0  0  0  0  0  0  0  0  0  0  0  0
    8.1770   -2.6570   24.7630 H   0  0  0  0  0  0  0  0  0  0  0  0
  1  2  1  0  0  0  0
  1 44  1  0  0  0  0
  1 45  1  0  0  0  0
  1 46  1  0  0  0  0
  2  3  1  0  0  0  0
  2 42  1  0  0  0  0
  2 43  1  0  0  0  0
  3  4  1  0  0  0  0
  3 12  1  0  0  0  0
  3 41  1  1  0  0  0
  4  5  1  0  0  0  0
  4 39  1  0  0  0  0
  4 40  1  0  0  0  0
  5  6  1  0  0  0  0
  5 10  1  0  0  0  0
  5 38  1  1  0  0  0
  6  7  1  0  0  0  0
  6  8  1  0  0  0  0
  6  9  1  0  0  0  0
 10 11  1  0  0  0  0
 10 36  1  0  0  0  0
 10 37  1  0  0  0  0
 11 12  1  0  0  0  0
 11 34  1  0  0  0  0
 11 35  1  0  0  0  0
 12 13  1  0  0  0  0
 13 14  2  0  0  0  0
 13 15  1  0  0  0  0
 15 16  1  0  0  0  0
 15 32  1  0  0  0  0
 15 33  1  0  0  0  0
 16 17  2  0  0  0  0
 16 25  1  0  0  0  0
 17 18  1  0  0  0  0
 17 31  1  0  0  0  0
 18 19  2  0  0  0  0
 19 20  1  0  0  0  0
 19 30  1  0  0  0  0
 20 21  2  0  0  0  0
 20 25  1  0  0  0  0
 21 22  1  0  0  0  0
 21 29  1  0  0  0  0
 22 23  2  0  0  0  0
 22 28  1  0  0  0  0
 23 24  1  0  0  0  0
 23 27  1  0  0  0  0
 24 25  2  0  0  0  0
 24 26  1  0  0  0  0
M  END
>  <MODEL>
       7

$$$$
best_conformers_27.pdb
 OpenBabel02042510453D

 46 48  0  0  1  0  0  0  0  0999 V2000
    7.9310   -1.6230   24.5020 C   0  0  0  0  0  0  0  0  0  0  0  0
    9.1300   -0.9110   23.8910 C   0  0  0  0  0  0  0  0  0  0  0  0
    8.8470    0.5450   23.5200 C   0  0  1  0  0  0  0  0  0  0  0  0
   10.1260    1.3180   23.1810 C   0  0  0  0  0  0  0  0  0  0  0  0
    9.8130    2.7900   22.8980 C   0  0  1  0  0  0  0  0  0  0  0  0
   11.0700    3.5570   22.5160 C   0  0  0  0  0  0  0  0  0  0  0  0
   10.8280    4.8640   22.2920 F   0  0  0  0  0  0  0  0  0  0  0  0
   12.0200    3.4880   23.4710 F   0  0  0  0  0  0  0  0  0  0  0  0
   11.6250    3.0700   21.3880 F   0  0  0  0  0  0  0  0  0  0  0  0
    8.7330    2.9240   21.8230 C   0  0  0  0  0  0  0  0  0  0  0  0
    7.5000    2.0950   22.1960 C   0  0  0  0  0  0  0  0  0  0  0  0
    7.7940    0.6850   22.4920 N   0  0  0  0  0  0  0  0  0  0  0  0
    7.8230   -0.1990   21.3640 C   0  0  0  0  0  0  0  0  0  0  0  0
    8.8200   -0.4380   20.7200 O   0  0  0  0  0  0  0  0  0  0  0  0
    6.4860   -0.8500   21.0030 C   0  0  0  0  0  0  0  0  0  0  0  0
    5.8010   -0.1680   19.8420 C   0  0  0  0  0  0  0  0  0  0  0  0
    6.2340   -0.4360   18.5660 C   0  0  0  0  0  0  0  0  0  0  0  0
    5.7540    0.1390   17.4330 N   0  0  0  0  0  0  0  0  0  0  0  0
    4.7860    1.0120   17.5810 C   0  0  0  0  0  0  0  0  0  0  0  0
    4.2240    1.3830   18.8320 C   0  0  0  0  0  0  0  0  0  0  0  0
    3.1760    2.3330   18.9340 C   0  0  0  0  0  0  0  0  0  0  0  0
    2.6540    2.6690   20.1530 C   0  0  0  0  0  0  0  0  0  0  0  0
    3.1630    2.0700   21.3260 C   0  0  0  0  0  0  0  0  0  0  0  0
    4.1840    1.1490   21.2560 C   0  0  0  0  0  0  0  0  0  0  0  0
    4.7450    0.7770   20.0080 C   0  0  0  0  0  0  0  0  0  0  0  0
    4.5770    0.7230   22.1770 H   0  0  0  0  0  0  0  0  0  0  0  0
    2.7520    2.3470   22.2900 H   0  0  0  0  0  0  0  0  0  0  0  0
    1.8530    3.4000   20.2290 H   0  0  0  0  0  0  0  0  0  0  0  0
    2.8000    2.7920   18.0210 H   0  0  0  0  0  0  0  0  0  0  0  0
    4.3980    1.4880   16.6780 H   0  0  0  0  0  0  0  0  0  0  0  0
    7.0260   -1.1670   18.4130 H   0  0  0  0  0  0  0  0  0  0  0  0
    5.8420   -0.9100   21.8860 H   0  0  0  0  0  0  0  0  0  0  0  0
    6.7350   -1.8780   20.7130 H   0  0  0  0  0  0  0  0  0  0  0  0
    6.7600    2.1500   21.3920 H   0  0  0  0  0  0  0  0  0  0  0  0
    7.0290    2.5380   23.0820 H   0  0  0  0  0  0  0  0  0  0  0  0
    8.4550    3.9790   21.7010 H   0  0  0  0  0  0  0  0  0  0  0  0
    9.1220    2.5840   20.8590 H   0  0  0  0  0  0  0  0  0  0  0  0
    9.4640    3.2700   23.8210 H   0  0  0  0  0  0  0  0  0  0  0  0
   10.8360    1.2480   24.0170 H   0  0  0  0  0  0  0  0  0  0  0  0
   10.6080    0.8540   22.3150 H   0  0  0  0  0  0  0  0  0  0  0  0
    8.4280    1.0290   24.4130 H   0  0  0  0  0  0  0  0  0  0  0  0
    9.4810   -1.4500   23.0060 H   0  0  0  0  0  0  0  0  0  0  0  0
    9.9560   -0.9430   24.6140 H   0  0  0  0  0  0  0  0  0  0  0  0
    7.5980   -1.1240   25.4190 H   0  0  0  0  0  0  0  0  0  0  0  0
    7.0820   -1.6530   23.8140 H   0  0  0  0  0  0  0  0  0  0  0  0
    8.1770   -2.6570   24.7630 H   0  0  0  0  0  0  0  0  0  0  0  0
  1  2  1  0  0  0  0
  1 44  1  0  0  0  0
  1 45  1  0  0  0  0
  1 46  1  0  0  0  0
  2  3  1  0  0  0  0
  2 42  1  0  0  0  0
  2 43  1  0  0  0  0
  3  4  1  0  0  0  0
  3 12  1  0  0  0  0
  3 41  1  1  0  0  0
  4  5  1  0  0  0  0
  4 39  1  0  0  0  0
  4 40  1  0  0  0  0
  5  6  1  0  0  0  0
  5 10  1  0  0  0  0
  5 38  1  1  0  0  0
  6  7  1  0  0  0  0
  6  8  1  0  0  0  0
  6  9  1  0  0  0  0
 10 11  1  0  0  0  0
 10 36  1  0  0  0  0
 10 37  1  0  0  0  0
 11 12  1  0  0  0  0
 11 34  1  0  0  0  0
 11 35  1  0  0  0  0
 12 13  1  0  0  0  0
 13 14  2  0  0  0  0
 13 15  1  0  0  0  0
 15 16  1  0  0  0  0
 15 32  1  0  0  0  0
 15 33  1  0  0  0  0
 16 17  2  0  0  0  0
 16 25  1  0  0  0  0
 17 18  1  0  0  0  0
 17 31  1  0  0  0  0
 18 19  2  0  0  0  0
 19 20  1  0  0  0  0
 19 30  1  0  0  0  0
 20 21  2  0  0  0  0
 20 25  1  0  0  0  0
 21 22  1  0  0  0  0
 21 29  1  0  0  0  0
 22 23  2  0  0  0  0
 22 28  1  0  0  0  0
 23 24  1  0  0  0  0
 23 27  1  0  0  0  0
 24 25  2  0  0  0  0
 24 26  1  0  0  0  0
M  END
>  <MODEL>
       8

$$$$
best_conformers_27.pdb
 OpenBabel02042510453D

 46 48  0  0  1  0  0  0  0  0999 V2000
    7.9310   -1.6230   24.5020 C   0  0  0  0  0  0  0  0  0  0  0  0
    9.1300   -0.9110   23.8910 C   0  0  0  0  0  0  0  0  0  0  0  0
    8.8470    0.5450   23.5200 C   0  0  1  0  0  0  0  0  0  0  0  0
   10.1270    1.3180   23.1800 C   0  0  0  0  0  0  0  0  0  0  0  0
    9.8130    2.7900   22.8980 C   0  0  1  0  0  0  0  0  0  0  0  0
   11.0700    3.5570   22.5160 C   0  0  0  0  0  0  0  0  0  0  0  0
   11.6250    3.0700   21.3880 F   0  0  0  0  0  0  0  0  0  0  0  0
   12.0200    3.4880   23.4710 F   0  0  0  0  0  0  0  0  0  0  0  0
   10.8280    4.8640   22.2920 F   0  0  0  0  0  0  0  0  0  0  0  0
    8.7330    2.9240   21.8230 C   0  0  0  0  0  0  0  0  0  0  0  0
    7.5000    2.0950   22.1960 C   0  0  0  0  0  0  0  0  0  0  0  0
    7.7940    0.6850   22.4920 N   0  0  0  0  0  0  0  0  0  0  0  0
    7.8230   -0.1990   21.3640 C   0  0  0  0  0  0  0  0  0  0  0  0
    8.8200   -0.4380   20.7200 O   0  0  0  0  0  0  0  0  0  0  0  0
    6.4860   -0.8500   21.0030 C   0  0  0  0  0  0  0  0  0  0  0  0
    5.8010   -0.1680   19.8420 C   0  0  0  0  0  0  0  0  0  0  0  0
    6.2340   -0.4360   18.5660 C   0  0  0  0  0  0  0  0  0  0  0  0
    5.7540    0.1390   17.4330 N   0  0  0  0  0  0  0  0  0  0  0  0
    4.7860    1.0120   17.5810 C   0  0  0  0  0  0  0  0  0  0  0  0
    4.2240    1.3830   18.8320 C   0  0  0  0  0  0  0  0  0  0  0  0
    3.1760    2.3330   18.9340 C   0  0  0  0  0  0  0  0  0  0  0  0
    2.6540    2.6690   20.1530 C   0  0  0  0  0  0  0  0  0  0  0  0
    3.1630    2.0700   21.3260 C   0  0  0  0  0  0  0  0  0  0  0  0
    4.1850    1.1490   21.2560 C   0  0  0  0  0  0  0  0  0  0  0  0
    4.7450    0.7770   20.0080 C   0  0  0  0  0  0  0  0  0  0  0  0
    4.5770    0.7230   22.1770 H   0  0  0  0  0  0  0  0  0  0  0  0
    2.7520    2.3470   22.2900 H   0  0  0  0  0  0  0  0  0  0  0  0
    1.8530    3.4000   20.2290 H   0  0  0  0  0  0  0  0  0  0  0  0
    2.8000    2.7920   18.0210 H   0  0  0  0  0  0  0  0  0  0  0  0
    4.3980    1.4880   16.6780 H   0  0  0  0  0  0  0  0  0  0  0  0
    7.0260   -1.1670   18.4130 H   0  0  0  0  0  0  0  0  0  0  0  0
    6.7350   -1.8780   20.7130 H   0  0  0  0  0  0  0  0  0  0  0  0
    5.8420   -0.9100   21.8860 H   0  0  0  0  0  0  0  0  0  0  0  0
    6.7600    2.1500   21.3920 H   0  0  0  0  0  0  0  0  0  0  0  0
    7.0290    2.5370   23.0820 H   0  0  0  0  0  0  0  0  0  0  0  0
    9.1220    2.5840   20.8590 H   0  0  0  0  0  0  0  0  0  0  0  0
    8.4550    3.9790   21.7010 H   0  0  0  0  0  0  0  0  0  0  0  0
    9.4650    3.2700   23.8210 H   0  0  0  0  0  0  0  0  0  0  0  0
   10.6080    0.8540   22.3150 H   0  0  0  0  0  0  0  0  0  0  0  0
   10.8360    1.2480   24.0170 H   0  0  0  0  0  0  0  0  0  0  0  0
    8.4280    1.0290   24.4130 H   0  0  0  0  0  0  0  0  0  0  0  0
    9.9560   -0.9430   24.6140 H   0  0  0  0  0  0  0  0  0  0  0  0
    9.4810   -1.4500   23.0060 H   0  0  0  0  0  0  0  0  0  0  0  0
    7.0820   -1.6530   23.8140 H   0  0  0  0  0  0  0  0  0  0  0  0
    7.5980   -1.1240   25.4190 H   0  0  0  0  0  0  0  0  0  0  0  0
    8.1770   -2.6570   24.7630 H   0  0  0  0  0  0  0  0  0  0  0  0
  1  2  1  0  0  0  0
  1 44  1  0  0  0  0
  1 45  1  0  0  0  0
  1 46  1  0  0  0  0
  2  3  1  0  0  0  0
  2 42  1  0  0  0  0
  2 43  1  0  0  0  0
  3  4  1  0  0  0  0
  3 12  1  0  0  0  0
  3 41  1  1  0  0  0
  4  5  1  0  0  0  0
  4 39  1  0  0  0  0
  4 40  1  0  0  0  0
  5  6  1  0  0  0  0
  5 10  1  0  0  0  0
  5 38  1  1  0  0  0
  6  7  1  0  0  0  0
  6  8  1  0  0  0  0
  6  9  1  0  0  0  0
 10 11  1  0  0  0  0
 10 36  1  0  0  0  0
 10 37  1  0  0  0  0
 11 12  1  0  0  0  0
 11 34  1  0  0  0  0
 11 35  1  0  0  0  0
 12 13  1  0  0  0  0
 13 14  2  0  0  0  0
 13 15  1  0  0  0  0
 15 16  1  0  0  0  0
 15 32  1  0  0  0  0
 15 33  1  0  0  0  0
 16 17  2  0  0  0  0
 16 25  1  0  0  0  0
 17 18  1  0  0  0  0
 17 31  1  0  0  0  0
 18 19  2  0  0  0  0
 19 20  1  0  0  0  0
 19 30  1  0  0  0  0
 20 21  2  0  0  0  0
 20 25  1  0  0  0  0
 21 22  1  0  0  0  0
 21 29  1  0  0  0  0
 22 23  2  0  0  0  0
 22 28  1  0  0  0  0
 23 24  1  0  0  0  0
 23 27  1  0  0  0  0
 24 25  2  0  0  0  0
 24 26  1  0  0  0  0
M  END
>  <MODEL>
       9

$$$$
best_conformers_27.pdb
 OpenBabel02042510453D

 46 48  0  0  1  0  0  0  0  0999 V2000
    7.9310   -1.6230   24.5030 C   0  0  0  0  0  0  0  0  0  0  0  0
    9.1300   -0.9110   23.8910 C   0  0  0  0  0  0  0  0  0  0  0  0
    8.8470    0.5450   23.5200 C   0  0  1  0  0  0  0  0  0  0  0  0
   10.1270    1.3190   23.1800 C   0  0  0  0  0  0  0  0  0  0  0  0
    9.8130    2.7900   22.8980 C   0  0  1  0  0  0  0  0  0  0  0  0
   11.0700    3.5570   22.5160 C   0  0  0  0  0  0  0  0  0  0  0  0
   10.8280    4.8640   22.2910 F   0  0  0  0  0  0  0  0  0  0  0  0
   11.6250    3.0700   21.3870 F   0  0  0  0  0  0  0  0  0  0  0  0
   12.0200    3.4880   23.4700 F   0  0  0  0  0  0  0  0  0  0  0  0
    8.7330    2.9240   21.8220 C   0  0  0  0  0  0  0  0  0  0  0  0
    7.5000    2.0950   22.1950 C   0  0  0  0  0  0  0  0  0  0  0  0
    7.7940    0.6850   22.4920 N   0  0  0  0  0  0  0  0  0  0  0  0
    7.8230   -0.1980   21.3630 C   0  0  0  0  0  0  0  0  0  0  0  0
    8.8200   -0.4380   20.7200 O   0  0  0  0  0  0  0  0  0  0  0  0
    6.4860   -0.8500   21.0030 C   0  0  0  0  0  0  0  0  0  0  0  0
    5.8010   -0.1680   19.8420 C   0  0  0  0  0  0  0  0  0  0  0  0
    6.2340   -0.4360   18.5660 C   0  0  0  0  0  0  0  0  0  0  0  0
    5.7540    0.1390   17.4330 N   0  0  0  0  0  0  0  0  0  0  0  0
    4.7860    1.0120   17.5810 C   0  0  0  0  0  0  0  0  0  0  0  0
    4.2240    1.3830   18.8320 C   0  0  0  0  0  0  0  0  0  0  0  0
    3.1760    2.3330   18.9340 C   0  0  0  0  0  0  0  0  0  0  0  0
    2.6540    2.6690   20.1530 C   0  0  0  0  0  0  0  0  0  0  0  0
    3.1630    2.0700   21.3260 C   0  0  0  0  0  0  0  0  0  0  0  0
    4.1850    1.1490   21.2560 C   0  0  0  0  0  0  0  0  0  0  0  0
    4.7450    0.7770   20.0080 C   0  0  0  0  0  0  0  0  0  0  0  0
    4.5770    0.7230   22.1770 H   0  0  0  0  0  0  0  0  0  0  0  0
    2.7520    2.3470   22.2900 H   0  0  0  0  0  0  0  0  0  0  0  0
    1.8530    3.4000   20.2290 H   0  0  0  0  0  0  0  0  0  0  0  0
    2.8000    2.7920   18.0210 H   0  0  0  0  0  0  0  0  0  0  0  0
    4.3980    1.4880   16.6780 H   0  0  0  0  0  0  0  0  0  0  0  0
    7.0260   -1.1670   18.4130 H   0  0  0  0  0  0  0  0  0  0  0  0
    5.8420   -0.9100   21.8860 H   0  0  0  0  0  0  0  0  0  0  0  0
    6.7350   -1.8780   20.7130 H   0  0  0  0  0  0  0  0  0  0  0  0
    6.7600    2.1500   21.3920 H   0  0  0  0  0  0  0  0  0  0  0  0
    7.0290    2.5380   23.0820 H   0  0  0  0  0  0  0  0  0  0  0  0
    8.4550    3.9790   21.7010 H   0  0  0  0  0  0  0  0  0  0  0  0
    9.1220    2.5840   20.8580 H   0  0  0  0  0  0  0  0  0  0  0  0
    9.4650    3.2710   23.8200 H   0  0  0  0  0  0  0  0  0  0  0  0
   10.6080    0.8540   22.3140 H   0  0  0  0  0  0  0  0  0  0  0  0
   10.8360    1.2480   24.0170 H   0  0  0  0  0  0  0  0  0  0  0  0
    8.4280    1.0290   24.4130 H   0  0  0  0  0  0  0  0  0  0  0  0
    9.4810   -1.4500   23.0060 H   0  0  0  0  0  0  0  0  0  0  0  0
    9.9560   -0.9420   24.6140 H   0  0  0  0  0  0  0  0  0  0  0  0
    7.5980   -1.1230   25.4190 H   0  0  0  0  0  0  0  0  0  0  0  0
    8.1770   -2.6570   24.7630 H   0  0  0  0  0  0  0  0  0  0  0  0
    7.0820   -1.6530   23.8150 H   0  0  0  0  0  0  0  0  0  0  0  0
  1  2  1  0  0  0  0
  1 44  1  0  0  0  0
  1 45  1  0  0  0  0
  1 46  1  0  0  0  0
  2  3  1  0  0  0  0
  2 42  1  0  0  0  0
  2 43  1  0  0  0  0
  3  4  1  0  0  0  0
  3 12  1  0  0  0  0
  3 41  1  1  0  0  0
  4  5  1  0  0  0  0
  4 39  1  0  0  0  0
  4 40  1  0  0  0  0
  5  6  1  0  0  0  0
  5 10  1  0  0  0  0
  5 38  1  1  0  0  0
  6  7  1  0  0  0  0
  6  8  1  0  0  0  0
  6  9  1  0  0  0  0
 10 11  1  0  0  0  0
 10 36  1  0  0  0  0
 10 37  1  0  0  0  0
 11 12  1  0  0  0  0
 11 34  1  0  0  0  0
 11 35  1  0  0  0  0
 12 13  1  0  0  0  0
 13 14  2  0  0  0  0
 13 15  1  0  0  0  0
 15 16  1  0  0  0  0
 15 32  1  0  0  0  0
 15 33  1  0  0  0  0
 16 17  2  0  0  0  0
 16 25  1  0  0  0  0
 17 18  1  0  0  0  0
 17 31  1  0  0  0  0
 18 19  2  0  0  0  0
 19 20  1  0  0  0  0
 19 30  1  0  0  0  0
 20 21  2  0  0  0  0
 20 25  1  0  0  0  0
 21 22  1  0  0  0  0
 21 29  1  0  0  0  0
 22 23  2  0  0  0  0
 22 28  1  0  0  0  0
 23 24  1  0  0  0  0
 23 27  1  0  0  0  0
 24 25  2  0  0  0  0
 24 26  1  0  0  0  0
M  END
>  <MODEL>
      10

$$$$
best_conformers_27.pdb
 OpenBabel02042510453D

 46 48  0  0  1  0  0  0  0  0999 V2000
    7.9260   -1.6210   24.5050 C   0  0  0  0  0  0  0  0  0  0  0  0
    9.1260   -0.9100   23.8940 C   0  0  0  0  0  0  0  0  0  0  0  0
    8.8430    0.5460   23.5230 C   0  0  1  0  0  0  0  0  0  0  0  0
   10.1240    1.3190   23.1840 C   0  0  0  0  0  0  0  0  0  0  0  0
    9.8110    2.7910   22.9010 C   0  0  1  0  0  0  0  0  0  0  0  0
   11.0690    3.5570   22.5200 C   0  0  0  0  0  0  0  0  0  0  0  0
   12.0180    3.4880   23.4760 F   0  0  0  0  0  0  0  0  0  0  0  0
   10.8270    4.8640   22.2950 F   0  0  0  0  0  0  0  0  0  0  0  0
   11.6250    3.0700   21.3930 F   0  0  0  0  0  0  0  0  0  0  0  0
    8.7330    2.9250   21.8240 C   0  0  0  0  0  0  0  0  0  0  0  0
    7.4990    2.0960   22.1950 C   0  0  0  0  0  0  0  0  0  0  0  0
    7.7920    0.6860   22.4930 N   0  0  0  0  0  0  0  0  0  0  0  0
    7.8220   -0.1980   21.3640 C   0  0  0  0  0  0  0  0  0  0  0  0
    8.8200   -0.4380   20.7220 O   0  0  0  0  0  0  0  0  0  0  0  0
    6.4860   -0.8510   21.0030 C   0  0  0  0  0  0  0  0  0  0  0  0
    5.8010   -0.1680   19.8420 C   0  0  0  0  0  0  0  0  0  0  0  0
    6.2340   -0.4360   18.5660 C   0  0  0  0  0  0  0  0  0  0  0  0
    5.7540    0.1390   17.4330 N   0  0  0  0  0  0  0  0  0  0  0  0
    4.7860    1.0120   17.5810 C   0  0  0  0  0  0  0  0  0  0  0  0
    4.2240    1.3830   18.8320 C   0  0  0  0  0  0  0  0  0  0  0  0
    3.1760    2.3330   18.9350 C   0  0  0  0  0  0  0  0  0  0  0  0
    2.6550    2.6690   20.1530 C   0  0  0  0  0  0  0  0  0  0  0  0
    3.1630    2.0700   21.3260 C   0  0  0  0  0  0  0  0  0  0  0  0
    4.1850    1.1490   21.2560 C   0  0  0  0  0  0  0  0  0  0  0  0
    4.7450    0.7770   20.0080 C   0  0  0  0  0  0  0  0  0  0  0  0
    4.5770    0.7230   22.1770 H   0  0  0  0  0  0  0  0  0  0  0  0
    2.7520    2.3470   22.2900 H   0  0  0  0  0  0  0  0  0  0  0  0
    1.8530    3.4000   20.2290 H   0  0  0  0  0  0  0  0  0  0  0  0
    2.8000    2.7920   18.0210 H   0  0  0  0  0  0  0  0  0  0  0  0
    4.3980    1.4880   16.6780 H   0  0  0  0  0  0  0  0  0  0  0  0
    7.0260   -1.1670   18.4130 H   0  0  0  0  0  0  0  0  0  0  0  0
    6.7360   -1.8780   20.7130 H   0  0  0  0  0  0  0  0  0  0  0  0
    5.8410   -0.9110   21.8860 H   0  0  0  0  0  0  0  0  0  0  0  0
    7.0270    2.5390   23.0810 H   0  0  0  0  0  0  0  0  0  0  0  0
    6.7600    2.1510   21.3910 H   0  0  0  0  0  0  0  0  0  0  0  0
    9.1230    2.5840   20.8600 H   0  0  0  0  0  0  0  0  0  0  0  0
    8.4550    3.9800   21.7010 H   0  0  0  0  0  0  0  0  0  0  0  0
    9.4610    3.2710   23.8230 H   0  0  0  0  0  0  0  0  0  0  0  0
   10.8320    1.2480   24.0210 H   0  0  0  0  0  0  0  0  0  0  0  0
   10.6060    0.8540   22.3190 H   0  0  0  0  0  0  0  0  0  0  0  0
    8.4230    1.0300   24.4150 H   0  0  0  0  0  0  0  0  0  0  0  0
    9.9510   -0.9410   24.6170 H   0  0  0  0  0  0  0  0  0  0  0  0
    9.4770   -1.4500   23.0100 H   0  0  0  0  0  0  0  0  0  0  0  0
    7.5920   -1.1220   25.4210 H   0  0  0  0  0  0  0  0  0  0  0  0
    8.1710   -2.6550   24.7660 H   0  0  0  0  0  0  0  0  0  0  0  0
    7.0770   -1.6510   23.8160 H   0  0  0  0  0  0  0  0  0  0  0  0
  1  2  1  0  0  0  0
  1 44  1  0  0  0  0
  1 45  1  0  0  0  0
  1 46  1  0  0  0  0
  2  3  1  0  0  0  0
  2 42  1  0  0  0  0
  2 43  1  0  0  0  0
  3  4  1  0  0  0  0
  3 12  1  0  0  0  0
  3 41  1  1  0  0  0
  4  5  1  0  0  0  0
  4 39  1  0  0  0  0
  4 40  1  0  0  0  0
  5  6  1  0  0  0  0
  5 10  1  0  0  0  0
  5 38  1  1  0  0  0
  6  7  1  0  0  0  0
  6  8  1  0  0  0  0
  6  9  1  0  0  0  0
 10 11  1  0  0  0  0
 10 36  1  0  0  0  0
 10 37  1  0  0  0  0
 11 12  1  0  0  0  0
 11 34  1  0  0  0  0
 11 35  1  0  0  0  0
 12 13  1  0  0  0  0
 13 14  2  0  0  0  0
 13 15  1  0  0  0  0
 15 16  1  0  0  0  0
 15 32  1  0  0  0  0
 15 33  1  0  0  0  0
 16 17  2  0  0  0  0
 16 25  1  0  0  0  0
 17 18  1  0  0  0  0
 17 31  1  0  0  0  0
 18 19  2  0  0  0  0
 19 20  1  0  0  0  0
 19 30  1  0  0  0  0
 20 21  2  0  0  0  0
 20 25  1  0  0  0  0
 21 22  1  0  0  0  0
 21 29  1  0  0  0  0
 22 23  2  0  0  0  0
 22 28  1  0  0  0  0
 23 24  1  0  0  0  0
 23 27  1  0  0  0  0
 24 25  2  0  0  0  0
 24 26  1  0  0  0  0
M  END
>  <MODEL>
      11

$$$$
best_conformers_27.pdb
 OpenBabel02042510453D

 46 48  0  0  1  0  0  0  0  0999 V2000
    8.1400   -2.0500   24.6580 C   0  0  0  0  0  0  0  0  0  0  0  0
    8.5730   -0.5790   24.6780 C   0  0  0  0  0  0  0  0  0  0  0  0
    9.4660   -0.1730   23.4880 C   0  0  1  0  0  0  0  0  0  0  0  0
   10.8680   -0.7910   23.6750 C   0  0  0  0  0  0  0  0  0  0  0  0
   11.7200   -0.7820   22.4110 C   0  0  1  0  0  0  0  0  0  0  0  0
   13.1080   -1.3900   22.6330 C   0  0  0  0  0  0  0  0  0  0  0  0
   13.0760   -2.5580   23.3010 F   0  0  0  0  0  0  0  0  0  0  0  0
   13.9040   -0.5630   23.3450 F   0  0  0  0  0  0  0  0  0  0  0  0
   13.7320   -1.6380   21.4620 F   0  0  0  0  0  0  0  0  0  0  0  0
   10.9620   -1.4710   21.2860 C   0  0  0  0  0  0  0  0  0  0  0  0
    9.6580   -0.7270   21.0120 C   0  0  0  0  0  0  0  0  0  0  0  0
    8.8200   -0.5340   22.2010 N   0  0  0  0  0  0  0  0  0  0  0  0
    7.5170   -0.0640   22.0030 C   0  0  0  0  0  0  0  0  0  0  0  0
    7.0610    0.8710   22.6380 O   0  0  0  0  0  0  0  0  0  0  0  0
    6.5980   -0.8530   21.0310 C   0  0  0  0  0  0  0  0  0  0  0  0
    5.9830   -0.1070   19.8540 C   0  0  0  0  0  0  0  0  0  0  0  0
    6.4140   -0.3710   18.5760 C   0  0  0  0  0  0  0  0  0  0  0  0
    5.9070    0.1620   17.4350 N   0  0  0  0  0  0  0  0  0  0  0  0
    4.9020    0.9950   17.5650 C   0  0  0  0  0  0  0  0  0  0  0  0
    4.3370    1.3640   18.8170 C   0  0  0  0  0  0  0  0  0  0  0  0
    3.2490    2.2720   18.8990 C   0  0  0  0  0  0  0  0  0  0  0  0
    2.6990    2.5880   20.1100 C   0  0  0  0  0  0  0  0  0  0  0  0
    3.2220    2.0120   21.2910 C   0  0  0  0  0  0  0  0  0  0  0  0
    4.2880    1.1500   21.2410 C   0  0  0  0  0  0  0  0  0  0  0  0
    4.8810    0.7980   19.9970 C   0  0  0  0  0  0  0  0  0  0  0  0
    4.7020    0.7570   22.1640 H   0  0  0  0  0  0  0  0  0  0  0  0
    2.7720    2.2620   22.2490 H   0  0  0  0  0  0  0  0  0  0  0  0
    1.8610    3.2760   20.1740 H   0  0  0  0  0  0  0  0  0  0  0  0
    2.8630    2.7080   17.9790 H   0  0  0  0  0  0  0  0  0  0  0  0
    4.4690    1.4010   16.6510 H   0  0  0  0  0  0  0  0  0  0  0  0
    7.2320   -1.0740   18.4150 H   0  0  0  0  0  0  0  0  0  0  0  0
    5.7720   -1.2420   21.6480 H   0  0  0  0  0  0  0  0  0  0  0  0
    7.1310   -1.7350   20.6540 H   0  0  0  0  0  0  0  0  0  0  0  0
    9.9050    0.2530   20.5800 H   0  0  0  0  0  0  0  0  0  0  0  0
    9.0680   -1.2640   20.2660 H   0  0  0  0  0  0  0  0  0  0  0  0
   11.6020   -1.4150   20.4030 H   0  0  0  0  0  0  0  0  0  0  0  0
   10.7860   -2.5280   21.5160 H   0  0  0  0  0  0  0  0  0  0  0  0
   11.9350    0.2470   22.0960 H   0  0  0  0  0  0  0  0  0  0  0  0
   10.7660   -1.8250   24.0250 H   0  0  0  0  0  0  0  0  0  0  0  0
   11.3900   -0.2440   24.4690 H   0  0  0  0  0  0  0  0  0  0  0  0
    9.5800    0.9200   23.5190 H   0  0  0  0  0  0  0  0  0  0  0  0
    9.1330   -0.3740   25.6020 H   0  0  0  0  0  0  0  0  0  0  0  0
    7.6950    0.0750   24.6740 H   0  0  0  0  0  0  0  0  0  0  0  0
    7.5820   -2.3120   23.7520 H   0  0  0  0  0  0  0  0  0  0  0  0
    8.9930   -2.7390   24.7240 H   0  0  0  0  0  0  0  0  0  0  0  0
    7.4970   -2.2580   25.5150 H   0  0  0  0  0  0  0  0  0  0  0  0
  1  2  1  0  0  0  0
  1 44  1  0  0  0  0
  1 45  1  0  0  0  0
  1 46  1  0  0  0  0
  2  3  1  0  0  0  0
  2 42  1  0  0  0  0
  2 43  1  0  0  0  0
  3  4  1  0  0  0  0
  3 12  1  0  0  0  0
  3 41  1  1  0  0  0
  4  5  1  0  0  0  0
  4 39  1  0  0  0  0
  4 40  1  0  0  0  0
  5  6  1  0  0  0  0
  5 10  1  0  0  0  0
  5 38  1  6  0  0  0
  6  7  1  0  0  0  0
  6  8  1  0  0  0  0
  6  9  1  0  0  0  0
 10 11  1  0  0  0  0
 10 36  1  0  0  0  0
 10 37  1  0  0  0  0
 11 12  1  0  0  0  0
 11 34  1  0  0  0  0
 11 35  1  0  0  0  0
 12 13  1  0  0  0  0
 13 14  2  0  0  0  0
 13 15  1  0  0  0  0
 15 16  1  0  0  0  0
 15 32  1  0  0  0  0
 15 33  1  0  0  0  0
 16 17  2  0  0  0  0
 16 25  1  0  0  0  0
 17 18  1  0  0  0  0
 17 31  1  0  0  0  0
 18 19  2  0  0  0  0
 19 20  1  0  0  0  0
 19 30  1  0  0  0  0
 20 21  2  0  0  0  0
 20 25  1  0  0  0  0
 21 22  1  0  0  0  0
 21 29  1  0  0  0  0
 22 23  2  0  0  0  0
 22 28  1  0  0  0  0
 23 24  1  0  0  0  0
 23 27  1  0  0  0  0
 24 25  2  0  0  0  0
 24 26  1  0  0  0  0
M  END
>  <MODEL>
      12

$$$$
best_conformers_27.pdb
 OpenBabel02042510453D

 46 48  0  0  1  0  0  0  0  0999 V2000
    8.1410   -2.0500   24.6560 C   0  0  0  0  0  0  0  0  0  0  0  0
    8.5730   -0.5790   24.6770 C   0  0  0  0  0  0  0  0  0  0  0  0
    9.4660   -0.1730   23.4870 C   0  0  1  0  0  0  0  0  0  0  0  0
   10.8680   -0.7920   23.6730 C   0  0  0  0  0  0  0  0  0  0  0  0
   11.7200   -0.7820   22.4090 C   0  0  1  0  0  0  0  0  0  0  0  0
   13.1090   -1.3910   22.6300 C   0  0  0  0  0  0  0  0  0  0  0  0
   13.7320   -1.6370   21.4580 F   0  0  0  0  0  0  0  0  0  0  0  0
   13.0770   -2.5600   23.2960 F   0  0  0  0  0  0  0  0  0  0  0  0
   13.9050   -0.5660   23.3420 F   0  0  0  0  0  0  0  0  0  0  0  0
   10.9620   -1.4700   21.2840 C   0  0  0  0  0  0  0  0  0  0  0  0
    9.6580   -0.7260   21.0110 C   0  0  0  0  0  0  0  0  0  0  0  0
    8.8200   -0.5340   22.2000 N   0  0  0  0  0  0  0  0  0  0  0  0
    7.5180   -0.0640   22.0010 C   0  0  0  0  0  0  0  0  0  0  0  0
    7.0600    0.8710   22.6370 O   0  0  0  0  0  0  0  0  0  0  0  0
    6.5980   -0.8530   21.0310 C   0  0  0  0  0  0  0  0  0  0  0  0
    5.9820   -0.1070   19.8530 C   0  0  0  0  0  0  0  0  0  0  0  0
    6.4140   -0.3710   18.5760 C   0  0  0  0  0  0  0  0  0  0  0  0
    5.9060    0.1620   17.4350 N   0  0  0  0  0  0  0  0  0  0  0  0
    4.9020    0.9950   17.5650 C   0  0  0  0  0  0  0  0  0  0  0  0
    4.3360    1.3650   18.8170 C   0  0  0  0  0  0  0  0  0  0  0  0
    3.2490    2.2720   18.8990 C   0  0  0  0  0  0  0  0  0  0  0  0
    2.6990    2.5880   20.1100 C   0  0  0  0  0  0  0  0  0  0  0  0
    3.2210    2.0120   21.2920 C   0  0  0  0  0  0  0  0  0  0  0  0
    4.2880    1.1500   21.2410 C   0  0  0  0  0  0  0  0  0  0  0  0
    4.8800    0.7980   19.9970 C   0  0  0  0  0  0  0  0  0  0  0  0
    4.7010    0.7570   22.1640 H   0  0  0  0  0  0  0  0  0  0  0  0
    2.7720    2.2610   22.2490 H   0  0  0  0  0  0  0  0  0  0  0  0
    1.8610    3.2770   20.1750 H   0  0  0  0  0  0  0  0  0  0  0  0
    2.8620    2.7090   17.9800 H   0  0  0  0  0  0  0  0  0  0  0  0
    4.4680    1.4020   16.6510 H   0  0  0  0  0  0  0  0  0  0  0  0
    7.2310   -1.0740   18.4150 H   0  0  0  0  0  0  0  0  0  0  0  0
    5.7720   -1.2410   21.6490 H   0  0  0  0  0  0  0  0  0  0  0  0
    7.1300   -1.7350   20.6530 H   0  0  0  0  0  0  0  0  0  0  0  0
    9.0680   -1.2630   20.2640 H   0  0  0  0  0  0  0  0  0  0  0  0
    9.9050    0.2540   20.5790 H   0  0  0  0  0  0  0  0  0  0  0  0
   10.7870   -2.5280   21.5130 H   0  0  0  0  0  0  0  0  0  0  0  0
   11.6020   -1.4140   20.4010 H   0  0  0  0  0  0  0  0  0  0  0  0
   11.9360    0.2470   22.0960 H   0  0  0  0  0  0  0  0  0  0  0  0
   10.7650   -1.8270   24.0220 H   0  0  0  0  0  0  0  0  0  0  0  0
   11.3890   -0.2460   24.4680 H   0  0  0  0  0  0  0  0  0  0  0  0
    9.5810    0.9200   23.5170 H   0  0  0  0  0  0  0  0  0  0  0  0
    7.6950    0.0750   24.6740 H   0  0  0  0  0  0  0  0  0  0  0  0
    9.1340   -0.3740   25.6010 H   0  0  0  0  0  0  0  0  0  0  0  0
    8.9930   -2.7380   24.7230 H   0  0  0  0  0  0  0  0  0  0  0  0
    7.5830   -2.3110   23.7500 H   0  0  0  0  0  0  0  0  0  0  0  0
    7.4970   -2.2590   25.5130 H   0  0  0  0  0  0  0  0  0  0  0  0
  1  2  1  0  0  0  0
  1 44  1  0  0  0  0
  1 45  1  0  0  0  0
  1 46  1  0  0  0  0
  2  3  1  0  0  0  0
  2 42  1  0  0  0  0
  2 43  1  0  0  0  0
  3  4  1  0  0  0  0
  3 12  1  0  0  0  0
  3 41  1  1  0  0  0
  4  5  1  0  0  0  0
  4 39  1  0  0  0  0
  4 40  1  0  0  0  0
  5  6  1  0  0  0  0
  5 10  1  0  0  0  0
  5 38  1  6  0  0  0
  6  7  1  0  0  0  0
  6  8  1  0  0  0  0
  6  9  1  0  0  0  0
 10 11  1  0  0  0  0
 10 36  1  0  0  0  0
 10 37  1  0  0  0  0
 11 12  1  0  0  0  0
 11 34  1  0  0  0  0
 11 35  1  0  0  0  0
 12 13  1  0  0  0  0
 13 14  2  0  0  0  0
 13 15  1  0  0  0  0
 15 16  1  0  0  0  0
 15 32  1  0  0  0  0
 15 33  1  0  0  0  0
 16 17  2  0  0  0  0
 16 25  1  0  0  0  0
 17 18  1  0  0  0  0
 17 31  1  0  0  0  0
 18 19  2  0  0  0  0
 19 20  1  0  0  0  0
 19 30  1  0  0  0  0
 20 21  2  0  0  0  0
 20 25  1  0  0  0  0
 21 22  1  0  0  0  0
 21 29  1  0  0  0  0
 22 23  2  0  0  0  0
 22 28  1  0  0  0  0
 23 24  1  0  0  0  0
 23 27  1  0  0  0  0
 24 25  2  0  0  0  0
 24 26  1  0  0  0  0
M  END
>  <MODEL>
      13

$$$$
best_conformers_27.pdb
 OpenBabel02042510453D

 46 48  0  0  1  0  0  0  0  0999 V2000
    8.1410   -2.0500   24.6560 C   0  0  0  0  0  0  0  0  0  0  0  0
    8.5730   -0.5790   24.6770 C   0  0  0  0  0  0  0  0  0  0  0  0
    9.4660   -0.1730   23.4870 C   0  0  1  0  0  0  0  0  0  0  0  0
   10.8680   -0.7920   23.6720 C   0  0  0  0  0  0  0  0  0  0  0  0
   11.7200   -0.7820   22.4090 C   0  0  1  0  0  0  0  0  0  0  0  0
   13.1090   -1.3910   22.6300 C   0  0  0  0  0  0  0  0  0  0  0  0
   13.7320   -1.6370   21.4580 F   0  0  0  0  0  0  0  0  0  0  0  0
   13.9050   -0.5650   23.3420 F   0  0  0  0  0  0  0  0  0  0  0  0
   13.0770   -2.5600   23.2960 F   0  0  0  0  0  0  0  0  0  0  0  0
   10.9620   -1.4700   21.2840 C   0  0  0  0  0  0  0  0  0  0  0  0
    9.6580   -0.7260   21.0110 C   0  0  0  0  0  0  0  0  0  0  0  0
    8.8200   -0.5340   22.2000 N   0  0  0  0  0  0  0  0  0  0  0  0
    7.5170   -0.0640   22.0020 C   0  0  0  0  0  0  0  0  0  0  0  0
    7.0610    0.8710   22.6370 O   0  0  0  0  0  0  0  0  0  0  0  0
    6.5980   -0.8530   21.0310 C   0  0  0  0  0  0  0  0  0  0  0  0
    5.9820   -0.1070   19.8540 C   0  0  0  0  0  0  0  0  0  0  0  0
    6.4140   -0.3710   18.5760 C   0  0  0  0  0  0  0  0  0  0  0  0
    5.9070    0.1620   17.4350 N   0  0  0  0  0  0  0  0  0  0  0  0
    4.9020    0.9960   17.5650 C   0  0  0  0  0  0  0  0  0  0  0  0
    4.3360    1.3650   18.8170 C   0  0  0  0  0  0  0  0  0  0  0  0
    3.2490    2.2720   18.8990 C   0  0  0  0  0  0  0  0  0  0  0  0
    2.6990    2.5880   20.1100 C   0  0  0  0  0  0  0  0  0  0  0  0
    3.2210    2.0120   21.2920 C   0  0  0  0  0  0  0  0  0  0  0  0
    4.2880    1.1500   21.2410 C   0  0  0  0  0  0  0  0  0  0  0  0
    4.8800    0.7980   19.9970 C   0  0  0  0  0  0  0  0  0  0  0  0
    4.7010    0.7570   22.1640 H   0  0  0  0  0  0  0  0  0  0  0  0
    2.7720    2.2610   22.2490 H   0  0  0  0  0  0  0  0  0  0  0  0
    1.8610    3.2770   20.1750 H   0  0  0  0  0  0  0  0  0  0  0  0
    2.8620    2.7090   17.9800 H   0  0  0  0  0  0  0  0  0  0  0  0
    4.4680    1.4020   16.6510 H   0  0  0  0  0  0  0  0  0  0  0  0
    7.2310   -1.0740   18.4150 H   0  0  0  0  0  0  0  0  0  0  0  0
    5.7720   -1.2420   21.6490 H   0  0  0  0  0  0  0  0  0  0  0  0
    7.1300   -1.7350   20.6530 H   0  0  0  0  0  0  0  0  0  0  0  0
    9.9050    0.2540   20.5790 H   0  0  0  0  0  0  0  0  0  0  0  0
    9.0670   -1.2620   20.2640 H   0  0  0  0  0  0  0  0  0  0  0  0
   10.7870   -2.5280   21.5130 H   0  0  0  0  0  0  0  0  0  0  0  0
   11.6020   -1.4140   20.4010 H   0  0  0  0  0  0  0  0  0  0  0  0
   11.9360    0.2470   22.0950 H   0  0  0  0  0  0  0  0  0  0  0  0
   11.3890   -0.2460   24.4680 H   0  0  0  0  0  0  0  0  0  0  0  0
   10.7650   -1.8270   24.0220 H   0  0  0  0  0  0  0  0  0  0  0  0
    9.5810    0.9200   23.5170 H   0  0  0  0  0  0  0  0  0  0  0  0
    7.6950    0.0750   24.6740 H   0  0  0  0  0  0  0  0  0  0  0  0
    9.1340   -0.3740   25.6010 H   0  0  0  0  0  0  0  0  0  0  0  0
    7.5830   -2.3110   23.7500 H   0  0  0  0  0  0  0  0  0  0  0  0
    8.9930   -2.7380   24.7230 H   0  0  0  0  0  0  0  0  0  0  0  0
    7.4980   -2.2580   25.5130 H   0  0  0  0  0  0  0  0  0  0  0  0
  1  2  1  0  0  0  0
  1 44  1  0  0  0  0
  1 45  1  0  0  0  0
  1 46  1  0  0  0  0
  2  3  1  0  0  0  0
  2 42  1  0  0  0  0
  2 43  1  0  0  0  0
  3  4  1  0  0  0  0
  3 12  1  0  0  0  0
  3 41  1  1  0  0  0
  4  5  1  0  0  0  0
  4 39  1  0  0  0  0
  4 40  1  0  0  0  0
  5  6  1  0  0  0  0
  5 10  1  0  0  0  0
  5 38  1  6  0  0  0
  6  7  1  0  0  0  0
  6  8  1  0  0  0  0
  6  9  1  0  0  0  0
 10 11  1  0  0  0  0
 10 36  1  0  0  0  0
 10 37  1  0  0  0  0
 11 12  1  0  0  0  0
 11 34  1  0  0  0  0
 11 35  1  0  0  0  0
 12 13  1  0  0  0  0
 13 14  2  0  0  0  0
 13 15  1  0  0  0  0
 15 16  1  0  0  0  0
 15 32  1  0  0  0  0
 15 33  1  0  0  0  0
 16 17  2  0  0  0  0
 16 25  1  0  0  0  0
 17 18  1  0  0  0  0
 17 31  1  0  0  0  0
 18 19  2  0  0  0  0
 19 20  1  0  0  0  0
 19 30  1  0  0  0  0
 20 21  2  0  0  0  0
 20 25  1  0  0  0  0
 21 22  1  0  0  0  0
 21 29  1  0  0  0  0
 22 23  2  0  0  0  0
 22 28  1  0  0  0  0
 23 24  1  0  0  0  0
 23 27  1  0  0  0  0
 24 25  2  0  0  0  0
 24 26  1  0  0  0  0
M  END
>  <MODEL>
      14

$$$$
best_conformers_27.pdb
 OpenBabel02042510453D

 46 48  0  0  1  0  0  0  0  0999 V2000
    6.9520    4.3280   23.2480 C   0  0  0  0  0  0  0  0  0  0  0  0
    6.6570    2.8440   22.9800 C   0  0  0  0  0  0  0  0  0  0  0  0
    7.8670    1.9180   23.2010 C   0  0  1  0  0  0  0  0  0  0  0  0
    8.5410    2.0360   24.5650 C   0  0  0  0  0  0  0  0  0  0  0  0
    7.9200    1.2140   25.6880 C   0  0  1  0  0  0  0  0  0  0  0  0
    6.7840    1.8720   26.4450 C   0  0  0  0  0  0  0  0  0  0  0  0
    7.0640    3.1600   26.7300 F   0  0  0  0  0  0  0  0  0  0  0  0
    6.6230    1.2280   27.6240 F   0  0  0  0  0  0  0  0  0  0  0  0
    5.5840    1.8600   25.8320 F   0  0  0  0  0  0  0  0  0  0  0  0
    7.6540   -0.2110   25.2500 C   0  0  0  0  0  0  0  0  0  0  0  0
    6.8720   -0.2820   23.9440 C   0  0  0  0  0  0  0  0  0  0  0  0
    7.5330    0.5170   22.9190 N   0  0  0  0  0  0  0  0  0  0  0  0
    7.5930    0.1470   21.5900 C   0  0  0  0  0  0  0  0  0  0  0  0
    8.4580    0.5710   20.8410 O   0  0  0  0  0  0  0  0  0  0  0  0
    6.5090   -0.7870   21.0410 C   0  0  0  0  0  0  0  0  0  0  0  0
    5.8200   -0.1650   19.8530 C   0  0  0  0  0  0  0  0  0  0  0  0
    6.2500   -0.4400   18.5780 C   0  0  0  0  0  0  0  0  0  0  0  0
    5.7670    0.1310   17.4440 N   0  0  0  0  0  0  0  0  0  0  0  0
    4.8000    1.0050   17.5900 C   0  0  0  0  0  0  0  0  0  0  0  0
    4.2340    1.3740   18.8420 C   0  0  0  0  0  0  0  0  0  0  0  0
    3.1900    2.3270   18.9450 C   0  0  0  0  0  0  0  0  0  0  0  0
    2.6690    2.6640   20.1660 C   0  0  0  0  0  0  0  0  0  0  0  0
    3.1740    2.0610   21.3390 C   0  0  0  0  0  0  0  0  0  0  0  0
    4.1910    1.1370   21.2630 C   0  0  0  0  0  0  0  0  0  0  0  0
    4.7560    0.7700   20.0140 C   0  0  0  0  0  0  0  0  0  0  0  0
    4.5790    0.7070   22.1840 H   0  0  0  0  0  0  0  0  0  0  0  0
    2.7580    2.3300   22.3060 H   0  0  0  0  0  0  0  0  0  0  0  0
    1.8720    3.3970   20.2390 H   0  0  0  0  0  0  0  0  0  0  0  0
    2.8210    2.7870   18.0310 H   0  0  0  0  0  0  0  0  0  0  0  0
    4.4060    1.4650   16.6810 H   0  0  0  0  0  0  0  0  0  0  0  0
    7.0400   -1.1700   18.4080 H   0  0  0  0  0  0  0  0  0  0  0  0
    5.7840   -1.0780   21.8090 H   0  0  0  0  0  0  0  0  0  0  0  0
    7.0340   -1.6880   20.7110 H   0  0  0  0  0  0  0  0  0  0  0  0
    6.8490   -1.3200   23.5960 H   0  0  0  0  0  0  0  0  0  0  0  0
    5.8430    0.0670   24.1220 H   0  0  0  0  0  0  0  0  0  0  0  0
    8.6390   -0.6740   25.1020 H   0  0  0  0  0  0  0  0  0  0  0  0
    7.1350   -0.7440   26.0540 H   0  0  0  0  0  0  0  0  0  0  0  0
    8.6330    1.0900   26.4830 H   0  0  0  0  0  0  0  0  0  0  0  0
    8.5980    3.0890   24.8550 H   0  0  0  0  0  0  0  0  0  0  0  0
    9.5600    1.6680   24.3990 H   0  0  0  0  0  0  0  0  0  0  0  0
    8.6140    2.1740   22.4390 H   0  0  0  0  0  0  0  0  0  0  0  0
    5.8240    2.5140   23.6130 H   0  0  0  0  0  0  0  0  0  0  0  0
    6.3400    2.7120   21.9340 H   0  0  0  0  0  0  0  0  0  0  0  0
    7.0510    4.5420   24.3190 H   0  0  0  0  0  0  0  0  0  0  0  0
    7.8750    4.6630   22.7540 H   0  0  0  0  0  0  0  0  0  0  0  0
    6.1370    4.9490   22.8640 H   0  0  0  0  0  0  0  0  0  0  0  0
  1  2  1  0  0  0  0
  1 44  1  0  0  0  0
  1 45  1  0  0  0  0
  1 46  1  0  0  0  0
  2  3  1  0  0  0  0
  2 42  1  0  0  0  0
  2 43  1  0  0  0  0
  3  4  1  0  0  0  0
  3 12  1  0  0  0  0
  3 41  1  6  0  0  0
  4  5  1  0  0  0  0
  4 39  1  0  0  0  0
  4 40  1  0  0  0  0
  5  6  1  0  0  0  0
  5 10  1  0  0  0  0
  5 38  1  1  0  0  0
  6  7  1  0  0  0  0
  6  8  1  0  0  0  0
  6  9  1  0  0  0  0
 10 11  1  0  0  0  0
 10 36  1  0  0  0  0
 10 37  1  0  0  0  0
 11 12  1  0  0  0  0
 11 34  1  0  0  0  0
 11 35  1  0  0  0  0
 12 13  1  0  0  0  0
 13 14  2  0  0  0  0
 13 15  1  0  0  0  0
 15 16  1  0  0  0  0
 15 32  1  0  0  0  0
 15 33  1  0  0  0  0
 16 17  2  0  0  0  0
 16 25  1  0  0  0  0
 17 18  1  0  0  0  0
 17 31  1  0  0  0  0
 18 19  2  0  0  0  0
 19 20  1  0  0  0  0
 19 30  1  0  0  0  0
 20 21  2  0  0  0  0
 20 25  1  0  0  0  0
 21 22  1  0  0  0  0
 21 29  1  0  0  0  0
 22 23  2  0  0  0  0
 22 28  1  0  0  0  0
 23 24  1  0  0  0  0
 23 27  1  0  0  0  0
 24 25  2  0  0  0  0
 24 26  1  0  0  0  0
M  END
>  <MODEL>
      15

$$$$
best_conformers_27.pdb
 OpenBabel02042510453D

 46 48  0  0  1  0  0  0  0  0999 V2000
    6.9560    4.3320   23.2330 C   0  0  0  0  0  0  0  0  0  0  0  0
    6.6600    2.8480   22.9690 C   0  0  0  0  0  0  0  0  0  0  0  0
    7.8690    1.9220   23.1930 C   0  0  1  0  0  0  0  0  0  0  0  0
    8.5440    2.0440   24.5560 C   0  0  0  0  0  0  0  0  0  0  0  0
    7.9210    1.2260   25.6810 C   0  0  1  0  0  0  0  0  0  0  0  0
    6.7860    1.8860   26.4370 C   0  0  0  0  0  0  0  0  0  0  0  0
    6.6260    1.2450   27.6170 F   0  0  0  0  0  0  0  0  0  0  0  0
    5.5850    1.8740   25.8260 F   0  0  0  0  0  0  0  0  0  0  0  0
    7.0660    3.1750   26.7180 F   0  0  0  0  0  0  0  0  0  0  0  0
    7.6550   -0.2010   25.2480 C   0  0  0  0  0  0  0  0  0  0  0  0
    6.8730   -0.2750   23.9430 C   0  0  0  0  0  0  0  0  0  0  0  0
    7.5350    0.5200   22.9150 N   0  0  0  0  0  0  0  0  0  0  0  0
    7.5950    0.1470   21.5870 C   0  0  0  0  0  0  0  0  0  0  0  0
    8.4600    0.5680   20.8370 O   0  0  0  0  0  0  0  0  0  0  0  0
    6.5090   -0.7870   21.0410 C   0  0  0  0  0  0  0  0  0  0  0  0
    5.8200   -0.1650   19.8530 C   0  0  0  0  0  0  0  0  0  0  0  0
    6.2500   -0.4400   18.5780 C   0  0  0  0  0  0  0  0  0  0  0  0
    5.7670    0.1310   17.4440 N   0  0  0  0  0  0  0  0  0  0  0  0
    4.8000    1.0050   17.5900 C   0  0  0  0  0  0  0  0  0  0  0  0
    4.2340    1.3740   18.8420 C   0  0  0  0  0  0  0  0  0  0  0  0
    3.1900    2.3270   18.9450 C   0  0  0  0  0  0  0  0  0  0  0  0
    2.6690    2.6640   20.1660 C   0  0  0  0  0  0  0  0  0  0  0  0
    3.1750    2.0610   21.3390 C   0  0  0  0  0  0  0  0  0  0  0  0
    4.1910    1.1380   21.2630 C   0  0  0  0  0  0  0  0  0  0  0  0
    4.7560    0.7700   20.0140 C   0  0  0  0  0  0  0  0  0  0  0  0
    4.5790    0.7080   22.1850 H   0  0  0  0  0  0  0  0  0  0  0  0
    2.7580    2.3310   22.3060 H   0  0  0  0  0  0  0  0  0  0  0  0
    1.8720    3.3970   20.2390 H   0  0  0  0  0  0  0  0  0  0  0  0
    2.8210    2.7870   18.0310 H   0  0  0  0  0  0  0  0  0  0  0  0
    4.4060    1.4650   16.6820 H   0  0  0  0  0  0  0  0  0  0  0  0
    7.0410   -1.1700   18.4090 H   0  0  0  0  0  0  0  0  0  0  0  0
    7.0330   -1.6890   20.7110 H   0  0  0  0  0  0  0  0  0  0  0  0
    5.7850   -1.0760   21.8100 H   0  0  0  0  0  0  0  0  0  0  0  0
    5.8440    0.0750   24.1190 H   0  0  0  0  0  0  0  0  0  0  0  0
    6.8490   -1.3140   23.5980 H   0  0  0  0  0  0  0  0  0  0  0  0
    7.1360   -0.7310   26.0540 H   0  0  0  0  0  0  0  0  0  0  0  0
    8.6400   -0.6640   25.1020 H   0  0  0  0  0  0  0  0  0  0  0  0
    8.6340    1.1060   26.4760 H   0  0  0  0  0  0  0  0  0  0  0  0
    8.6000    3.0980   24.8430 H   0  0  0  0  0  0  0  0  0  0  0  0
    9.5620    1.6760   24.3930 H   0  0  0  0  0  0  0  0  0  0  0  0
    8.6160    2.1750   22.4300 H   0  0  0  0  0  0  0  0  0  0  0  0
    6.3420    2.7130   21.9250 H   0  0  0  0  0  0  0  0  0  0  0  0
    5.8270    2.5200   23.6040 H   0  0  0  0  0  0  0  0  0  0  0  0
    7.0550    4.5500   24.3040 H   0  0  0  0  0  0  0  0  0  0  0  0
    7.8780    4.6660   22.7380 H   0  0  0  0  0  0  0  0  0  0  0  0
    6.1400    4.9530   22.8480 H   0  0  0  0  0  0  0  0  0  0  0  0
  1  2  1  0  0  0  0
  1 44  1  0  0  0  0
  1 45  1  0  0  0  0
  1 46  1  0  0  0  0
  2  3  1  0  0  0  0
  2 42  1  0  0  0  0
  2 43  1  0  0  0  0
  3  4  1  0  0  0  0
  3 12  1  0  0  0  0
  3 41  1  6  0  0  0
  4  5  1  0  0  0  0
  4 39  1  0  0  0  0
  4 40  1  0  0  0  0
  5  6  1  0  0  0  0
  5 10  1  0  0  0  0
  5 38  1  1  0  0  0
  6  7  1  0  0  0  0
  6  8  1  0  0  0  0
  6  9  1  0  0  0  0
 10 11  1  0  0  0  0
 10 36  1  0  0  0  0
 10 37  1  0  0  0  0
 11 12  1  0  0  0  0
 11 34  1  0  0  0  0
 11 35  1  0  0  0  0
 12 13  1  0  0  0  0
 13 14  2  0  0  0  0
 13 15  1  0  0  0  0
 15 16  1  0  0  0  0
 15 32  1  0  0  0  0
 15 33  1  0  0  0  0
 16 17  2  0  0  0  0
 16 25  1  0  0  0  0
 17 18  1  0  0  0  0
 17 31  1  0  0  0  0
 18 19  2  0  0  0  0
 19 20  1  0  0  0  0
 19 30  1  0  0  0  0
 20 21  2  0  0  0  0
 20 25  1  0  0  0  0
 21 22  1  0  0  0  0
 21 29  1  0  0  0  0
 22 23  2  0  0  0  0
 22 28  1  0  0  0  0
 23 24  1  0  0  0  0
 23 27  1  0  0  0  0
 24 25  2  0  0  0  0
 24 26  1  0  0  0  0
M  END
>  <MODEL>
      16

$$$$
best_conformers_27.pdb
 OpenBabel02042510453D

 46 48  0  0  1  0  0  0  0  0999 V2000
    6.9560    4.3320   23.2330 C   0  0  0  0  0  0  0  0  0  0  0  0
    6.6600    2.8490   22.9690 C   0  0  0  0  0  0  0  0  0  0  0  0
    7.8700    1.9220   23.1930 C   0  0  1  0  0  0  0  0  0  0  0  0
    8.5440    2.0440   24.5560 C   0  0  0  0  0  0  0  0  0  0  0  0
    7.9210    1.2270   25.6810 C   0  0  1  0  0  0  0  0  0  0  0  0
    6.7860    1.8860   26.4370 C   0  0  0  0  0  0  0  0  0  0  0  0
    7.0670    3.1750   26.7180 F   0  0  0  0  0  0  0  0  0  0  0  0
    5.5850    1.8740   25.8260 F   0  0  0  0  0  0  0  0  0  0  0  0
    6.6260    1.2460   27.6170 F   0  0  0  0  0  0  0  0  0  0  0  0
    7.6550   -0.2010   25.2480 C   0  0  0  0  0  0  0  0  0  0  0  0
    6.8730   -0.2740   23.9430 C   0  0  0  0  0  0  0  0  0  0  0  0
    7.5350    0.5210   22.9150 N   0  0  0  0  0  0  0  0  0  0  0  0
    7.5950    0.1470   21.5870 C   0  0  0  0  0  0  0  0  0  0  0  0
    8.4610    0.5680   20.8370 O   0  0  0  0  0  0  0  0  0  0  0  0
    6.5090   -0.7870   21.0410 C   0  0  0  0  0  0  0  0  0  0  0  0
    5.8200   -0.1650   19.8530 C   0  0  0  0  0  0  0  0  0  0  0  0
    6.2500   -0.4400   18.5780 C   0  0  0  0  0  0  0  0  0  0  0  0
    5.7670    0.1310   17.4440 N   0  0  0  0  0  0  0  0  0  0  0  0
    4.8000    1.0050   17.5900 C   0  0  0  0  0  0  0  0  0  0  0  0
    4.2340    1.3740   18.8420 C   0  0  0  0  0  0  0  0  0  0  0  0
    3.1900    2.3270   18.9450 C   0  0  0  0  0  0  0  0  0  0  0  0
    2.6690    2.6640   20.1660 C   0  0  0  0  0  0  0  0  0  0  0  0
    3.1750    2.0610   21.3390 C   0  0  0  0  0  0  0  0  0  0  0  0
    4.1910    1.1380   21.2630 C   0  0  0  0  0  0  0  0  0  0  0  0
    4.7560    0.7700   20.0140 C   0  0  0  0  0  0  0  0  0  0  0  0
    4.5790    0.7080   22.1850 H   0  0  0  0  0  0  0  0  0  0  0  0
    2.7580    2.3310   22.3060 H   0  0  0  0  0  0  0  0  0  0  0  0
    1.8720    3.3970   20.2390 H   0  0  0  0  0  0  0  0  0  0  0  0
    2.8210    2.7870   18.0310 H   0  0  0  0  0  0  0  0  0  0  0  0
    4.4060    1.4650   16.6820 H   0  0  0  0  0  0  0  0  0  0  0  0
    7.0410   -1.1700   18.4090 H   0  0  0  0  0  0  0  0  0  0  0  0
    5.7850   -1.0760   21.8100 H   0  0  0  0  0  0  0  0  0  0  0  0
    7.0330   -1.6890   20.7110 H   0  0  0  0  0  0  0  0  0  0  0  0
    6.8490   -1.3140   23.5980 H   0  0  0  0  0  0  0  0  0  0  0  0
    5.8440    0.0760   24.1190 H   0  0  0  0  0  0  0  0  0  0  0  0
    8.6400   -0.6640   25.1020 H   0  0  0  0  0  0  0  0  0  0  0  0
    7.1370   -0.7310   26.0540 H   0  0  0  0  0  0  0  0  0  0  0  0
    8.6340    1.1070   26.4760 H   0  0  0  0  0  0  0  0  0  0  0  0
    8.6000    3.0990   24.8430 H   0  0  0  0  0  0  0  0  0  0  0  0
    9.5620    1.6760   24.3930 H   0  0  0  0  0  0  0  0  0  0  0  0
    8.6160    2.1750   22.4290 H   0  0  0  0  0  0  0  0  0  0  0  0
    6.3420    2.7130   21.9240 H   0  0  0  0  0  0  0  0  0  0  0  0
    5.8270    2.5200   23.6040 H   0  0  0  0  0  0  0  0  0  0  0  0
    7.8780    4.6660   22.7380 H   0  0  0  0  0  0  0  0  0  0  0  0
    6.1410    4.9530   22.8480 H   0  0  0  0  0  0  0  0  0  0  0  0
    7.0550    4.5500   24.3040 H   0  0  0  0  0  0  0  0  0  0  0  0
  1  2  1  0  0  0  0
  1 44  1  0  0  0  0
  1 45  1  0  0  0  0
  1 46  1  0  0  0  0
  2  3  1  0  0  0  0
  2 42  1  0  0  0  0
  2 43  1  0  0  0  0
  3  4  1  0  0  0  0
  3 12  1  0  0  0  0
  3 41  1  6  0  0  0
  4  5  1  0  0  0  0
  4 39  1  0  0  0  0
  4 40  1  0  0  0  0
  5  6  1  0  0  0  0
  5 10  1  0  0  0  0
  5 38  1  1  0  0  0
  6  7  1  0  0  0  0
  6  8  1  0  0  0  0
  6  9  1  0  0  0  0
 10 11  1  0  0  0  0
 10 36  1  0  0  0  0
 10 37  1  0  0  0  0
 11 12  1  0  0  0  0
 11 34  1  0  0  0  0
 11 35  1  0  0  0  0
 12 13  1  0  0  0  0
 13 14  2  0  0  0  0
 13 15  1  0  0  0  0
 15 16  1  0  0  0  0
 15 32  1  0  0  0  0
 15 33  1  0  0  0  0
 16 17  2  0  0  0  0
 16 25  1  0  0  0  0
 17 18  1  0  0  0  0
 17 31  1  0  0  0  0
 18 19  2  0  0  0  0
 19 20  1  0  0  0  0
 19 30  1  0  0  0  0
 20 21  2  0  0  0  0
 20 25  1  0  0  0  0
 21 22  1  0  0  0  0
 21 29  1  0  0  0  0
 22 23  2  0  0  0  0
 22 28  1  0  0  0  0
 23 24  1  0  0  0  0
 23 27  1  0  0  0  0
 24 25  2  0  0  0  0
 24 26  1  0  0  0  0
M  END
>  <MODEL>
      17

$$$$
best_conformers_27.pdb
 OpenBabel02042510453D

 46 48  0  0  1  0  0  0  0  0999 V2000
    6.9560    4.3320   23.2330 C   0  0  0  0  0  0  0  0  0  0  0  0
    6.6600    2.8480   22.9690 C   0  0  0  0  0  0  0  0  0  0  0  0
    7.8690    1.9220   23.1930 C   0  0  1  0  0  0  0  0  0  0  0  0
    8.5440    2.0440   24.5560 C   0  0  0  0  0  0  0  0  0  0  0  0
    7.9210    1.2260   25.6810 C   0  0  1  0  0  0  0  0  0  0  0  0
    6.7860    1.8860   26.4370 C   0  0  0  0  0  0  0  0  0  0  0  0
    5.5850    1.8730   25.8260 F   0  0  0  0  0  0  0  0  0  0  0  0
    7.0660    3.1750   26.7180 F   0  0  0  0  0  0  0  0  0  0  0  0
    6.6260    1.2450   27.6170 F   0  0  0  0  0  0  0  0  0  0  0  0
    7.6550   -0.2010   25.2480 C   0  0  0  0  0  0  0  0  0  0  0  0
    6.8730   -0.2750   23.9430 C   0  0  0  0  0  0  0  0  0  0  0  0
    7.5350    0.5200   22.9150 N   0  0  0  0  0  0  0  0  0  0  0  0
    7.5950    0.1470   21.5870 C   0  0  0  0  0  0  0  0  0  0  0  0
    8.4610    0.5680   20.8370 O   0  0  0  0  0  0  0  0  0  0  0  0
    6.5090   -0.7870   21.0410 C   0  0  0  0  0  0  0  0  0  0  0  0
    5.8200   -0.1650   19.8530 C   0  0  0  0  0  0  0  0  0  0  0  0
    6.2500   -0.4400   18.5780 C   0  0  0  0  0  0  0  0  0  0  0  0
    5.7670    0.1310   17.4440 N   0  0  0  0  0  0  0  0  0  0  0  0
    4.8000    1.0050   17.5900 C   0  0  0  0  0  0  0  0  0  0  0  0
    4.2340    1.3740   18.8420 C   0  0  0  0  0  0  0  0  0  0  0  0
    3.1900    2.3270   18.9450 C   0  0  0  0  0  0  0  0  0  0  0  0
    2.6690    2.6640   20.1660 C   0  0  0  0  0  0  0  0  0  0  0  0
    3.1750    2.0610   21.3390 C   0  0  0  0  0  0  0  0  0  0  0  0
    4.1910    1.1380   21.2630 C   0  0  0  0  0  0  0  0  0  0  0  0
    4.7560    0.7700   20.0140 C   0  0  0  0  0  0  0  0  0  0  0  0
    4.5790    0.7080   22.1850 H   0  0  0  0  0  0  0  0  0  0  0  0
    2.7580    2.3310   22.3060 H   0  0  0  0  0  0  0  0  0  0  0  0
    1.8720    3.3970   20.2390 H   0  0  0  0  0  0  0  0  0  0  0  0
    2.8210    2.7870   18.0310 H   0  0  0  0  0  0  0  0  0  0  0  0
    4.4060    1.4650   16.6820 H   0  0  0  0  0  0  0  0  0  0  0  0
    7.0410   -1.1700   18.4090 H   0  0  0  0  0  0  0  0  0  0  0  0
    5.7850   -1.0760   21.8100 H   0  0  0  0  0  0  0  0  0  0  0  0
    7.0330   -1.6890   20.7110 H   0  0  0  0  0  0  0  0  0  0  0  0
    6.8490   -1.3140   23.5980 H   0  0  0  0  0  0  0  0  0  0  0  0
    5.8440    0.0750   24.1190 H   0  0  0  0  0  0  0  0  0  0  0  0
    8.6400   -0.6640   25.1020 H   0  0  0  0  0  0  0  0  0  0  0  0
    7.1360   -0.7310   26.0540 H   0  0  0  0  0  0  0  0  0  0  0  0
    8.6340    1.1060   26.4760 H   0  0  0  0  0  0  0  0  0  0  0  0
    9.5620    1.6760   24.3930 H   0  0  0  0  0  0  0  0  0  0  0  0
    8.6000    3.0980   24.8430 H   0  0  0  0  0  0  0  0  0  0  0  0
    8.6160    2.1750   22.4300 H   0  0  0  0  0  0  0  0  0  0  0  0
    6.3420    2.7130   21.9250 H   0  0  0  0  0  0  0  0  0  0  0  0
    5.8270    2.5200   23.6040 H   0  0  0  0  0  0  0  0  0  0  0  0
    6.1400    4.9530   22.8480 H   0  0  0  0  0  0  0  0  0  0  0  0
    7.8780    4.6660   22.7380 H   0  0  0  0  0  0  0  0  0  0  0  0
    7.0550    4.5500   24.3040 H   0  0  0  0  0  0  0  0  0  0  0  0
  1  2  1  0  0  0  0
  1 44  1  0  0  0  0
  1 45  1  0  0  0  0
  1 46  1  0  0  0  0
  2  3  1  0  0  0  0
  2 42  1  0  0  0  0
  2 43  1  0  0  0  0
  3  4  1  0  0  0  0
  3 12  1  0  0  0  0
  3 41  1  6  0  0  0
  4  5  1  0  0  0  0
  4 39  1  0  0  0  0
  4 40  1  0  0  0  0
  5  6  1  0  0  0  0
  5 10  1  0  0  0  0
  5 38  1  1  0  0  0
  6  7  1  0  0  0  0
  6  8  1  0  0  0  0
  6  9  1  0  0  0  0
 10 11  1  0  0  0  0
 10 36  1  0  0  0  0
 10 37  1  0  0  0  0
 11 12  1  0  0  0  0
 11 34  1  0  0  0  0
 11 35  1  0  0  0  0
 12 13  1  0  0  0  0
 13 14  2  0  0  0  0
 13 15  1  0  0  0  0
 15 16  1  0  0  0  0
 15 32  1  0  0  0  0
 15 33  1  0  0  0  0
 16 17  2  0  0  0  0
 16 25  1  0  0  0  0
 17 18  1  0  0  0  0
 17 31  1  0  0  0  0
 18 19  2  0  0  0  0
 19 20  1  0  0  0  0
 19 30  1  0  0  0  0
 20 21  2  0  0  0  0
 20 25  1  0  0  0  0
 21 22  1  0  0  0  0
 21 29  1  0  0  0  0
 22 23  2  0  0  0  0
 22 28  1  0  0  0  0
 23 24  1  0  0  0  0
 23 27  1  0  0  0  0
 24 25  2  0  0  0  0
 24 26  1  0  0  0  0
M  END
>  <MODEL>
      18

$$$$
best_conformers_27.pdb
 OpenBabel02042510453D

 46 48  0  0  1  0  0  0  0  0999 V2000
    6.9560    4.3320   23.2330 C   0  0  0  0  0  0  0  0  0  0  0  0
    6.6600    2.8480   22.9690 C   0  0  0  0  0  0  0  0  0  0  0  0
    7.8690    1.9220   23.1930 C   0  0  1  0  0  0  0  0  0  0  0  0
    8.5440    2.0440   24.5560 C   0  0  0  0  0  0  0  0  0  0  0  0
    7.9210    1.2260   25.6810 C   0  0  1  0  0  0  0  0  0  0  0  0
    6.7850    1.8860   26.4370 C   0  0  0  0  0  0  0  0  0  0  0  0
    5.5850    1.8740   25.8260 F   0  0  0  0  0  0  0  0  0  0  0  0
    6.6260    1.2460   27.6170 F   0  0  0  0  0  0  0  0  0  0  0  0
    7.0660    3.1750   26.7180 F   0  0  0  0  0  0  0  0  0  0  0  0
    7.6550   -0.2010   25.2480 C   0  0  0  0  0  0  0  0  0  0  0  0
    6.8730   -0.2750   23.9430 C   0  0  0  0  0  0  0  0  0  0  0  0
    7.5350    0.5200   22.9150 N   0  0  0  0  0  0  0  0  0  0  0  0
    7.5950    0.1470   21.5870 C   0  0  0  0  0  0  0  0  0  0  0  0
    8.4610    0.5680   20.8370 O   0  0  0  0  0  0  0  0  0  0  0  0
    6.5090   -0.7870   21.0410 C   0  0  0  0  0  0  0  0  0  0  0  0
    5.8200   -0.1650   19.8530 C   0  0  0  0  0  0  0  0  0  0  0  0
    6.2500   -0.4400   18.5780 C   0  0  0  0  0  0  0  0  0  0  0  0
    5.7670    0.1310   17.4440 N   0  0  0  0  0  0  0  0  0  0  0  0
    4.8000    1.0050   17.5900 C   0  0  0  0  0  0  0  0  0  0  0  0
    4.2340    1.3740   18.8420 C   0  0  0  0  0  0  0  0  0  0  0  0
    3.1900    2.3270   18.9450 C   0  0  0  0  0  0  0  0  0  0  0  0
    2.6690    2.6640   20.1660 C   0  0  0  0  0  0  0  0  0  0  0  0
    3.1750    2.0610   21.3390 C   0  0  0  0  0  0  0  0  0  0  0  0
    4.1910    1.1370   21.2630 C   0  0  0  0  0  0  0  0  0  0  0  0
    4.7560    0.7700   20.0140 C   0  0  0  0  0  0  0  0  0  0  0  0
    4.5790    0.7080   22.1850 H   0  0  0  0  0  0  0  0  0  0  0  0
    2.7580    2.3300   22.3060 H   0  0  0  0  0  0  0  0  0  0  0  0
    1.8720    3.3970   20.2390 H   0  0  0  0  0  0  0  0  0  0  0  0
    2.8210    2.7870   18.0310 H   0  0  0  0  0  0  0  0  0  0  0  0
    4.4060    1.4650   16.6820 H   0  0  0  0  0  0  0  0  0  0  0  0
    7.0410   -1.1700   18.4090 H   0  0  0  0  0  0  0  0  0  0  0  0
    5.7850   -1.0760   21.8100 H   0  0  0  0  0  0  0  0  0  0  0  0
    7.0330   -1.6890   20.7110 H   0  0  0  0  0  0  0  0  0  0  0  0
    6.8490   -1.3140   23.5980 H   0  0  0  0  0  0  0  0  0  0  0  0
    5.8440    0.0750   24.1190 H   0  0  0  0  0  0  0  0  0  0  0  0
    7.1360   -0.7310   26.0540 H   0  0  0  0  0  0  0  0  0  0  0  0
    8.6400   -0.6640   25.1020 H   0  0  0  0  0  0  0  0  0  0  0  0
    8.6340    1.1070   26.4760 H   0  0  0  0  0  0  0  0  0  0  0  0
    8.6000    3.0980   24.8430 H   0  0  0  0  0  0  0  0  0  0  0  0
    9.5620    1.6760   24.3930 H   0  0  0  0  0  0  0  0  0  0  0  0
    8.6160    2.1750   22.4300 H   0  0  0  0  0  0  0  0  0  0  0  0
    5.8270    2.5200   23.6040 H   0  0  0  0  0  0  0  0  0  0  0  0
    6.3420    2.7130   21.9250 H   0  0  0  0  0  0  0  0  0  0  0  0
    7.8780    4.6660   22.7380 H   0  0  0  0  0  0  0  0  0  0  0  0
    7.0550    4.5500   24.3040 H   0  0  0  0  0  0  0  0  0  0  0  0
    6.1400    4.9520   22.8480 H   0  0  0  0  0  0  0  0  0  0  0  0
  1  2  1  0  0  0  0
  1 44  1  0  0  0  0
  1 45  1  0  0  0  0
  1 46  1  0  0  0  0
  2  3  1  0  0  0  0
  2 42  1  0  0  0  0
  2 43  1  0  0  0  0
  3  4  1  0  0  0  0
  3 12  1  0  0  0  0
  3 41  1  6  0  0  0
  4  5  1  0  0  0  0
  4 39  1  0  0  0  0
  4 40  1  0  0  0  0
  5  6  1  0  0  0  0
  5 10  1  0  0  0  0
  5 38  1  1  0  0  0
  6  7  1  0  0  0  0
  6  8  1  0  0  0  0
  6  9  1  0  0  0  0
 10 11  1  0  0  0  0
 10 36  1  0  0  0  0
 10 37  1  0  0  0  0
 11 12  1  0  0  0  0
 11 34  1  0  0  0  0
 11 35  1  0  0  0  0
 12 13  1  0  0  0  0
 13 14  2  0  0  0  0
 13 15  1  0  0  0  0
 15 16  1  0  0  0  0
 15 32  1  0  0  0  0
 15 33  1  0  0  0  0
 16 17  2  0  0  0  0
 16 25  1  0  0  0  0
 17 18  1  0  0  0  0
 17 31  1  0  0  0  0
 18 19  2  0  0  0  0
 19 20  1  0  0  0  0
 19 30  1  0  0  0  0
 20 21  2  0  0  0  0
 20 25  1  0  0  0  0
 21 22  1  0  0  0  0
 21 29  1  0  0  0  0
 22 23  2  0  0  0  0
 22 28  1  0  0  0  0
 23 24  1  0  0  0  0
 23 27  1  0  0  0  0
 24 25  2  0  0  0  0
 24 26  1  0  0  0  0
M  END
>  <MODEL>
      19

$$$$
best_conformers_27.pdb
 OpenBabel02042510453D

 46 48  0  0  1  0  0  0  0  0999 V2000
    5.5360    1.4280   24.8430 C   0  0  0  0  0  0  0  0  0  0  0  0
    6.7620    2.0060   24.1310 C   0  0  0  0  0  0  0  0  0  0  0  0
    7.9350    1.0120   23.9370 C   0  0  1  0  0  0  0  0  0  0  0  0
    8.4610    0.3940   25.2510 C   0  0  0  0  0  0  0  0  0  0  0  0
    9.4940   -0.7020   24.9290 C   0  0  1  0  0  0  0  0  0  0  0  0
   10.2320   -1.2880   26.1150 C   0  0  0  0  0  0  0  0  0  0  0  0
   10.7380   -0.3340   26.9030 F   0  0  0  0  0  0  0  0  0  0  0  0
    9.4500   -2.0650   26.8850 F   0  0  0  0  0  0  0  0  0  0  0  0
   11.2560   -2.0650   25.6980 F   0  0  0  0  0  0  0  0  0  0  0  0
    8.8420   -1.8500   24.1360 C   0  0  0  0  0  0  0  0  0  0  0  0
    7.4780   -1.4230   23.6010 C   0  0  0  0  0  0  0  0  0  0  0  0
    7.5640   -0.0830   23.0360 N   0  0  0  0  0  0  0  0  0  0  0  0
    7.3380    0.2090   21.7230 C   0  0  0  0  0  0  0  0  0  0  0  0
    7.7470    1.2190   21.1730 O   0  0  0  0  0  0  0  0  0  0  0  0
    6.4760   -0.8210   20.9860 C   0  0  0  0  0  0  0  0  0  0  0  0
    5.8120   -0.2020   19.8140 C   0  0  0  0  0  0  0  0  0  0  0  0
    6.2820   -0.4410   18.5530 C   0  0  0  0  0  0  0  0  0  0  0  0
    5.8020    0.1320   17.4200 N   0  0  0  0  0  0  0  0  0  0  0  0
    4.8210    0.9920   17.5820 C   0  0  0  0  0  0  0  0  0  0  0  0
    4.2580    1.3530   18.8390 C   0  0  0  0  0  0  0  0  0  0  0  0
    3.2150    2.3080   18.9470 C   0  0  0  0  0  0  0  0  0  0  0  0
    2.6950    2.6430   20.1670 C   0  0  0  0  0  0  0  0  0  0  0  0
    3.2010    2.0410   21.3410 C   0  0  0  0  0  0  0  0  0  0  0  0
    4.2140    1.1150   21.2700 C   0  0  0  0  0  0  0  0  0  0  0  0
    4.7690    0.7460   20.0070 C   0  0  0  0  0  0  0  0  0  0  0  0
    4.5810    0.6750   22.1970 H   0  0  0  0  0  0  0  0  0  0  0  0
    2.7840    2.3210   22.3060 H   0  0  0  0  0  0  0  0  0  0  0  0
    1.8940    3.3740   20.2390 H   0  0  0  0  0  0  0  0  0  0  0  0
    2.8420    2.7670   18.0350 H   0  0  0  0  0  0  0  0  0  0  0  0
    4.4170    1.4570   16.6820 H   0  0  0  0  0  0  0  0  0  0  0  0
    7.1090   -1.1400   18.4190 H   0  0  0  0  0  0  0  0  0  0  0  0
    7.1300   -1.6470   20.6720 H   0  0  0  0  0  0  0  0  0  0  0  0
    5.7310   -1.2160   21.6880 H   0  0  0  0  0  0  0  0  0  0  0  0
    6.7320   -1.4570   24.4120 H   0  0  0  0  0  0  0  0  0  0  0  0
    7.1630   -2.1230   22.8270 H   0  0  0  0  0  0  0  0  0  0  0  0
    8.6760   -2.7270   24.7700 H   0  0  0  0  0  0  0  0  0  0  0  0
    9.5170   -2.1380   23.3230 H   0  0  0  0  0  0  0  0  0  0  0  0
   10.3190   -0.2400   24.3710 H   0  0  0  0  0  0  0  0  0  0  0  0
    8.8840    1.1840   25.8670 H   0  0  0  0  0  0  0  0  0  0  0  0
    7.6250   -0.0200   25.8360 H   0  0  0  0  0  0  0  0  0  0  0  0
    8.7340    1.5690   23.4180 H   0  0  0  0  0  0  0  0  0  0  0  0
    7.1290    2.8750   24.6960 H   0  0  0  0  0  0  0  0  0  0  0  0
    6.4660    2.3870   23.1410 H   0  0  0  0  0  0  0  0  0  0  0  0
    4.6900    2.1220   24.7660 H   0  0  0  0  0  0  0  0  0  0  0  0
    5.7340    1.2540   25.9070 H   0  0  0  0  0  0  0  0  0  0  0  0
    5.2150    0.4760   24.4030 H   0  0  0  0  0  0  0  0  0  0  0  0
  1  2  1  0  0  0  0
  1 44  1  0  0  0  0
  1 45  1  0  0  0  0
  1 46  1  0  0  0  0
  2  3  1  0  0  0  0
  2 42  1  0  0  0  0
  2 43  1  0  0  0  0
  3  4  1  0  0  0  0
  3 12  1  0  0  0  0
  3 41  1  6  0  0  0
  4  5  1  0  0  0  0
  4 39  1  0  0  0  0
  4 40  1  0  0  0  0
  5  6  1  0  0  0  0
  5 10  1  0  0  0  0
  5 38  1  6  0  0  0
  6  7  1  0  0  0  0
  6  8  1  0  0  0  0
  6  9  1  0  0  0  0
 10 11  1  0  0  0  0
 10 36  1  0  0  0  0
 10 37  1  0  0  0  0
 11 12  1  0  0  0  0
 11 34  1  0  0  0  0
 11 35  1  0  0  0  0
 12 13  1  0  0  0  0
 13 14  2  0  0  0  0
 13 15  1  0  0  0  0
 15 16  1  0  0  0  0
 15 32  1  0  0  0  0
 15 33  1  0  0  0  0
 16 17  2  0  0  0  0
 16 25  1  0  0  0  0
 17 18  1  0  0  0  0
 17 31  1  0  0  0  0
 18 19  2  0  0  0  0
 19 20  1  0  0  0  0
 19 30  1  0  0  0  0
 20 21  2  0  0  0  0
 20 25  1  0  0  0  0
 21 22  1  0  0  0  0
 21 29  1  0  0  0  0
 22 23  2  0  0  0  0
 22 28  1  0  0  0  0
 23 24  1  0  0  0  0
 23 27  1  0  0  0  0
 24 25  2  0  0  0  0
 24 26  1  0  0  0  0
M  END
>  <MODEL>
      20

$$$$
best_conformers_27.pdb
 OpenBabel02042510453D

 46 48  0  0  1  0  0  0  0  0999 V2000
    9.1080   -1.7330   24.0310 C   0  0  0  0  0  0  0  0  0  0  0  0
    8.3650   -0.6390   24.7920 C   0  0  0  0  0  0  0  0  0  0  0  0
    7.0160   -0.2590   24.1440 C   0  0  1  0  0  0  0  0  0  0  0  0
    5.9850    0.3050   25.1290 C   0  0  0  0  0  0  0  0  0  0  0  0
    6.0720    1.7980   25.4420 C   0  0  1  0  0  0  0  0  0  0  0  0
    7.0330    2.1430   26.5630 C   0  0  0  0  0  0  0  0  0  0  0  0
    6.8940    1.3560   27.6470 F   0  0  0  0  0  0  0  0  0  0  0  0
    8.3140    2.0430   26.1660 F   0  0  0  0  0  0  0  0  0  0  0  0
    6.8660    3.4130   26.9920 F   0  0  0  0  0  0  0  0  0  0  0  0
    6.3380    2.6190   24.1820 C   0  0  0  0  0  0  0  0  0  0  0  0
    7.4380    2.0440   23.2890 C   0  0  0  0  0  0  0  0  0  0  0  0
    7.1410    0.6410   22.9860 N   0  0  0  0  0  0  0  0  0  0  0  0
    7.4560    0.1760   21.6940 C   0  0  0  0  0  0  0  0  0  0  0  0
    8.4030    0.6000   21.0620 O   0  0  0  0  0  0  0  0  0  0  0  0
    6.4860   -0.8210   21.0410 C   0  0  0  0  0  0  0  0  0  0  0  0
    5.8050   -0.1790   19.8450 C   0  0  0  0  0  0  0  0  0  0  0  0
    6.2370   -0.4370   18.5680 C   0  0  0  0  0  0  0  0  0  0  0  0
    5.7530    0.1380   17.4330 N   0  0  0  0  0  0  0  0  0  0  0  0
    4.7840    1.0120   17.5810 C   0  0  0  0  0  0  0  0  0  0  0  0
    4.2280    1.3810   18.8370 C   0  0  0  0  0  0  0  0  0  0  0  0
    3.1820    2.3330   18.9430 C   0  0  0  0  0  0  0  0  0  0  0  0
    2.6610    2.6650   20.1660 C   0  0  0  0  0  0  0  0  0  0  0  0
    3.1710    2.0560   21.3340 C   0  0  0  0  0  0  0  0  0  0  0  0
    4.1880    1.1340   21.2580 C   0  0  0  0  0  0  0  0  0  0  0  0
    4.7520    0.7740   20.0060 C   0  0  0  0  0  0  0  0  0  0  0  0
    4.5590    0.6740   22.1670 H   0  0  0  0  0  0  0  0  0  0  0  0
    2.7530    2.3270   22.2990 H   0  0  0  0  0  0  0  0  0  0  0  0
    1.8630    3.3980   20.2450 H   0  0  0  0  0  0  0  0  0  0  0  0
    2.8040    2.7980   18.0340 H   0  0  0  0  0  0  0  0  0  0  0  0
    4.3960    1.4890   16.6790 H   0  0  0  0  0  0  0  0  0  0  0  0
    7.0260   -1.1700   18.4020 H   0  0  0  0  0  0  0  0  0  0  0  0
    7.0840   -1.6710   20.6930 H   0  0  0  0  0  0  0  0  0  0  0  0
    5.7520   -1.1930   21.7650 H   0  0  0  0  0  0  0  0  0  0  0  0
    7.4530    2.5890   22.3410 H   0  0  0  0  0  0  0  0  0  0  0  0
    8.4240    2.1900   23.7500 H   0  0  0  0  0  0  0  0  0  0  0  0
    5.4110    2.6340   23.6000 H   0  0  0  0  0  0  0  0  0  0  0  0
    6.5540    3.6610   24.4380 H   0  0  0  0  0  0  0  0  0  0  0  0
    5.1150    2.1110   25.8710 H   0  0  0  0  0  0  0  0  0  0  0  0
    5.9960   -0.2770   26.0550 H   0  0  0  0  0  0  0  0  0  0  0  0
    4.9990    0.1430   24.6830 H   0  0  0  0  0  0  0  0  0  0  0  0
    6.5930   -1.1910   23.7630 H   0  0  0  0  0  0  0  0  0  0  0  0
    8.1860   -0.9730   25.8250 H   0  0  0  0  0  0  0  0  0  0  0  0
    9.0000    0.2430   24.8750 H   0  0  0  0  0  0  0  0  0  0  0  0
   10.0420   -1.9920   24.5380 H   0  0  0  0  0  0  0  0  0  0  0  0
    8.5110   -2.6480   23.9620 H   0  0  0  0  0  0  0  0  0  0  0  0
    9.3620   -1.4230   23.0130 H   0  0  0  0  0  0  0  0  0  0  0  0
  1  2  1  0  0  0  0
  1 44  1  0  0  0  0
  1 45  1  0  0  0  0
  1 46  1  0  0  0  0
  2  3  1  0  0  0  0
  2 42  1  0  0  0  0
  2 43  1  0  0  0  0
  3  4  1  0  0  0  0
  3 12  1  0  0  0  0
  3 41  1  6  0  0  0
  4  5  1  0  0  0  0
  4 39  1  0  0  0  0
  4 40  1  0  0  0  0
  5  6  1  0  0  0  0
  5 10  1  0  0  0  0
  5 38  1  1  0  0  0
  6  7  1  0  0  0  0
  6  8  1  0  0  0  0
  6  9  1  0  0  0  0
 10 11  1  0  0  0  0
 10 36  1  0  0  0  0
 10 37  1  0  0  0  0
 11 12  1  0  0  0  0
 11 34  1  0  0  0  0
 11 35  1  0  0  0  0
 12 13  1  0  0  0  0
 13 14  2  0  0  0  0
 13 15  1  0  0  0  0
 15 16  1  0  0  0  0
 15 32  1  0  0  0  0
 15 33  1  0  0  0  0
 16 17  2  0  0  0  0
 16 25  1  0  0  0  0
 17 18  1  0  0  0  0
 17 31  1  0  0  0  0
 18 19  2  0  0  0  0
 19 20  1  0  0  0  0
 19 30  1  0  0  0  0
 20 21  2  0  0  0  0
 20 25  1  0  0  0  0
 21 22  1  0  0  0  0
 21 29  1  0  0  0  0
 22 23  2  0  0  0  0
 22 28  1  0  0  0  0
 23 24  1  0  0  0  0
 23 27  1  0  0  0  0
 24 25  2  0  0  0  0
 24 26  1  0  0  0  0
M  END
>  <MODEL>
      21

$$$$
best_conformers_27.pdb
 OpenBabel02042510453D

 46 48  0  0  1  0  0  0  0  0999 V2000
    9.1080   -1.7330   24.0320 C   0  0  0  0  0  0  0  0  0  0  0  0
    8.3650   -0.6390   24.7920 C   0  0  0  0  0  0  0  0  0  0  0  0
    7.0160   -0.2580   24.1440 C   0  0  1  0  0  0  0  0  0  0  0  0
    5.9850    0.3060   25.1290 C   0  0  0  0  0  0  0  0  0  0  0  0
    6.0720    1.7990   25.4410 C   0  0  1  0  0  0  0  0  0  0  0  0
    7.0340    2.1440   26.5630 C   0  0  0  0  0  0  0  0  0  0  0  0
    8.3140    2.0430   26.1650 F   0  0  0  0  0  0  0  0  0  0  0  0
    6.8660    3.4140   26.9910 F   0  0  0  0  0  0  0  0  0  0  0  0
    6.8950    1.3570   27.6460 F   0  0  0  0  0  0  0  0  0  0  0  0
    6.3380    2.6200   24.1810 C   0  0  0  0  0  0  0  0  0  0  0  0
    7.4390    2.0440   23.2880 C   0  0  0  0  0  0  0  0  0  0  0  0
    7.1410    0.6420   22.9850 N   0  0  0  0  0  0  0  0  0  0  0  0
    7.4570    0.1760   21.6940 C   0  0  0  0  0  0  0  0  0  0  0  0
    8.4030    0.6000   21.0620 O   0  0  0  0  0  0  0  0  0  0  0  0
    6.4860   -0.8210   21.0410 C   0  0  0  0  0  0  0  0  0  0  0  0
    5.8050   -0.1790   19.8450 C   0  0  0  0  0  0  0  0  0  0  0  0
    6.2370   -0.4370   18.5680 C   0  0  0  0  0  0  0  0  0  0  0  0
    5.7530    0.1380   17.4330 N   0  0  0  0  0  0  0  0  0  0  0  0
    4.7840    1.0120   17.5810 C   0  0  0  0  0  0  0  0  0  0  0  0
    4.2280    1.3810   18.8370 C   0  0  0  0  0  0  0  0  0  0  0  0
    3.1820    2.3330   18.9430 C   0  0  0  0  0  0  0  0  0  0  0  0
    2.6610    2.6650   20.1660 C   0  0  0  0  0  0  0  0  0  0  0  0
    3.1710    2.0560   21.3340 C   0  0  0  0  0  0  0  0  0  0  0  0
    4.1880    1.1340   21.2580 C   0  0  0  0  0  0  0  0  0  0  0  0
    4.7520    0.7740   20.0060 C   0  0  0  0  0  0  0  0  0  0  0  0
    4.5590    0.6740   22.1670 H   0  0  0  0  0  0  0  0  0  0  0  0
    2.7530    2.3270   22.2990 H   0  0  0  0  0  0  0  0  0  0  0  0
    1.8630    3.3980   20.2440 H   0  0  0  0  0  0  0  0  0  0  0  0
    2.8040    2.7980   18.0340 H   0  0  0  0  0  0  0  0  0  0  0  0
    4.3960    1.4890   16.6790 H   0  0  0  0  0  0  0  0  0  0  0  0
    7.0260   -1.1700   18.4020 H   0  0  0  0  0  0  0  0  0  0  0  0
    7.0840   -1.6710   20.6930 H   0  0  0  0  0  0  0  0  0  0  0  0
    5.7520   -1.1930   21.7650 H   0  0  0  0  0  0  0  0  0  0  0  0
    8.4250    2.1900   23.7490 H   0  0  0  0  0  0  0  0  0  0  0  0
    7.4530    2.5890   22.3410 H   0  0  0  0  0  0  0  0  0  0  0  0
    5.4110    2.6340   23.6000 H   0  0  0  0  0  0  0  0  0  0  0  0
    6.5540    3.6610   24.4380 H   0  0  0  0  0  0  0  0  0  0  0  0
    5.1150    2.1120   25.8710 H   0  0  0  0  0  0  0  0  0  0  0  0
    4.9990    0.1440   24.6830 H   0  0  0  0  0  0  0  0  0  0  0  0
    5.9960   -0.2760   26.0550 H   0  0  0  0  0  0  0  0  0  0  0  0
    6.5930   -1.1910   23.7630 H   0  0  0  0  0  0  0  0  0  0  0  0
    9.0000    0.2440   24.8750 H   0  0  0  0  0  0  0  0  0  0  0  0
    8.1860   -0.9720   25.8250 H   0  0  0  0  0  0  0  0  0  0  0  0
   10.0420   -1.9920   24.5380 H   0  0  0  0  0  0  0  0  0  0  0  0
    9.3620   -1.4230   23.0130 H   0  0  0  0  0  0  0  0  0  0  0  0
    8.5110   -2.6480   23.9630 H   0  0  0  0  0  0  0  0  0  0  0  0
  1  2  1  0  0  0  0
  1 44  1  0  0  0  0
  1 45  1  0  0  0  0
  1 46  1  0  0  0  0
  2  3  1  0  0  0  0
  2 42  1  0  0  0  0
  2 43  1  0  0  0  0
  3  4  1  0  0  0  0
  3 12  1  0  0  0  0
  3 41  1  6  0  0  0
  4  5  1  0  0  0  0
  4 39  1  0  0  0  0
  4 40  1  0  0  0  0
  5  6  1  0  0  0  0
  5 10  1  0  0  0  0
  5 38  1  1  0  0  0
  6  7  1  0  0  0  0
  6  8  1  0  0  0  0
  6  9  1  0  0  0  0
 10 11  1  0  0  0  0
 10 36  1  0  0  0  0
 10 37  1  0  0  0  0
 11 12  1  0  0  0  0
 11 34  1  0  0  0  0
 11 35  1  0  0  0  0
 12 13  1  0  0  0  0
 13 14  2  0  0  0  0
 13 15  1  0  0  0  0
 15 16  1  0  0  0  0
 15 32  1  0  0  0  0
 15 33  1  0  0  0  0
 16 17  2  0  0  0  0
 16 25  1  0  0  0  0
 17 18  1  0  0  0  0
 17 31  1  0  0  0  0
 18 19  2  0  0  0  0
 19 20  1  0  0  0  0
 19 30  1  0  0  0  0
 20 21  2  0  0  0  0
 20 25  1  0  0  0  0
 21 22  1  0  0  0  0
 21 29  1  0  0  0  0
 22 23  2  0  0  0  0
 22 28  1  0  0  0  0
 23 24  1  0  0  0  0
 23 27  1  0  0  0  0
 24 25  2  0  0  0  0
 24 26  1  0  0  0  0
M  END
>  <MODEL>
      22

$$$$
best_conformers_27.pdb
 OpenBabel02042510453D

 46 48  0  0  1  0  0  0  0  0999 V2000
    9.1080   -1.7330   24.0320 C   0  0  0  0  0  0  0  0  0  0  0  0
    8.3650   -0.6390   24.7920 C   0  0  0  0  0  0  0  0  0  0  0  0
    7.0160   -0.2580   24.1440 C   0  0  1  0  0  0  0  0  0  0  0  0
    5.9850    0.3060   25.1290 C   0  0  0  0  0  0  0  0  0  0  0  0
    6.0720    1.7990   25.4410 C   0  0  1  0  0  0  0  0  0  0  0  0
    7.0340    2.1440   26.5630 C   0  0  0  0  0  0  0  0  0  0  0  0
    6.8670    3.4140   26.9910 F   0  0  0  0  0  0  0  0  0  0  0  0
    8.3140    2.0430   26.1650 F   0  0  0  0  0  0  0  0  0  0  0  0
    6.8950    1.3570   27.6460 F   0  0  0  0  0  0  0  0  0  0  0  0
    6.3390    2.6200   24.1810 C   0  0  0  0  0  0  0  0  0  0  0  0
    7.4390    2.0440   23.2880 C   0  0  0  0  0  0  0  0  0  0  0  0
    7.1410    0.6420   22.9850 N   0  0  0  0  0  0  0  0  0  0  0  0
    7.4570    0.1760   21.6940 C   0  0  0  0  0  0  0  0  0  0  0  0
    8.4030    0.6000   21.0620 O   0  0  0  0  0  0  0  0  0  0  0  0
    6.4860   -0.8210   21.0410 C   0  0  0  0  0  0  0  0  0  0  0  0
    5.8050   -0.1790   19.8450 C   0  0  0  0  0  0  0  0  0  0  0  0
    6.2370   -0.4370   18.5680 C   0  0  0  0  0  0  0  0  0  0  0  0
    5.7530    0.1380   17.4330 N   0  0  0  0  0  0  0  0  0  0  0  0
    4.7840    1.0120   17.5810 C   0  0  0  0  0  0  0  0  0  0  0  0
    4.2280    1.3810   18.8370 C   0  0  0  0  0  0  0  0  0  0  0  0
    3.1820    2.3330   18.9430 C   0  0  0  0  0  0  0  0  0  0  0  0
    2.6610    2.6650   20.1660 C   0  0  0  0  0  0  0  0  0  0  0  0
    3.1710    2.0560   21.3340 C   0  0  0  0  0  0  0  0  0  0  0  0
    4.1880    1.1340   21.2580 C   0  0  0  0  0  0  0  0  0  0  0  0
    4.7520    0.7740   20.0060 C   0  0  0  0  0  0  0  0  0  0  0  0
    4.5590    0.6740   22.1670 H   0  0  0  0  0  0  0  0  0  0  0  0
    2.7530    2.3270   22.2990 H   0  0  0  0  0  0  0  0  0  0  0  0
    1.8630    3.3980   20.2450 H   0  0  0  0  0  0  0  0  0  0  0  0
    2.8040    2.7980   18.0340 H   0  0  0  0  0  0  0  0  0  0  0  0
    4.3960    1.4890   16.6790 H   0  0  0  0  0  0  0  0  0  0  0  0
    7.0260   -1.1700   18.4020 H   0  0  0  0  0  0  0  0  0  0  0  0
    7.0840   -1.6710   20.6930 H   0  0  0  0  0  0  0  0  0  0  0  0
    5.7520   -1.1930   21.7650 H   0  0  0  0  0  0  0  0  0  0  0  0
    8.4250    2.1900   23.7490 H   0  0  0  0  0  0  0  0  0  0  0  0
    7.4530    2.5890   22.3410 H   0  0  0  0  0  0  0  0  0  0  0  0
    6.5540    3.6610   24.4380 H   0  0  0  0  0  0  0  0  0  0  0  0
    5.4110    2.6340   23.6000 H   0  0  0  0  0  0  0  0  0  0  0  0
    5.1150    2.1120   25.8710 H   0  0  0  0  0  0  0  0  0  0  0  0
    5.9960   -0.2760   26.0550 H   0  0  0  0  0  0  0  0  0  0  0  0
    4.9990    0.1440   24.6830 H   0  0  0  0  0  0  0  0  0  0  0  0
    6.5930   -1.1910   23.7630 H   0  0  0  0  0  0  0  0  0  0  0  0
    8.1860   -0.9720   25.8250 H   0  0  0  0  0  0  0  0  0  0  0  0
    9.0000    0.2430   24.8750 H   0  0  0  0  0  0  0  0  0  0  0  0
    8.5110   -2.6480   23.9630 H   0  0  0  0  0  0  0  0  0  0  0  0
    9.3610   -1.4230   23.0130 H   0  0  0  0  0  0  0  0  0  0  0  0
   10.0420   -1.9920   24.5380 H   0  0  0  0  0  0  0  0  0  0  0  0
  1  2  1  0  0  0  0
  1 44  1  0  0  0  0
  1 45  1  0  0  0  0
  1 46  1  0  0  0  0
  2  3  1  0  0  0  0
  2 42  1  0  0  0  0
  2 43  1  0  0  0  0
  3  4  1  0  0  0  0
  3 12  1  0  0  0  0
  3 41  1  6  0  0  0
  4  5  1  0  0  0  0
  4 39  1  0  0  0  0
  4 40  1  0  0  0  0
  5  6  1  0  0  0  0
  5 10  1  0  0  0  0
  5 38  1  1  0  0  0
  6  7  1  0  0  0  0
  6  8  1  0  0  0  0
  6  9  1  0  0  0  0
 10 11  1  0  0  0  0
 10 36  1  0  0  0  0
 10 37  1  0  0  0  0
 11 12  1  0  0  0  0
 11 34  1  0  0  0  0
 11 35  1  0  0  0  0
 12 13  1  0  0  0  0
 13 14  2  0  0  0  0
 13 15  1  0  0  0  0
 15 16  1  0  0  0  0
 15 32  1  0  0  0  0
 15 33  1  0  0  0  0
 16 17  2  0  0  0  0
 16 25  1  0  0  0  0
 17 18  1  0  0  0  0
 17 31  1  0  0  0  0
 18 19  2  0  0  0  0
 19 20  1  0  0  0  0
 19 30  1  0  0  0  0
 20 21  2  0  0  0  0
 20 25  1  0  0  0  0
 21 22  1  0  0  0  0
 21 29  1  0  0  0  0
 22 23  2  0  0  0  0
 22 28  1  0  0  0  0
 23 24  1  0  0  0  0
 23 27  1  0  0  0  0
 24 25  2  0  0  0  0
 24 26  1  0  0  0  0
M  END
>  <MODEL>
      23

$$$$
best_conformers_27.pdb
 OpenBabel02042510453D

 46 48  0  0  1  0  0  0  0  0999 V2000
    9.1070   -1.7330   24.0320 C   0  0  0  0  0  0  0  0  0  0  0  0
    8.3650   -0.6390   24.7920 C   0  0  0  0  0  0  0  0  0  0  0  0
    7.0160   -0.2580   24.1440 C   0  0  1  0  0  0  0  0  0  0  0  0
    5.9850    0.3060   25.1290 C   0  0  0  0  0  0  0  0  0  0  0  0
    6.0720    1.7990   25.4410 C   0  0  1  0  0  0  0  0  0  0  0  0
    7.0340    2.1440   26.5630 C   0  0  0  0  0  0  0  0  0  0  0  0
    6.8950    1.3570   27.6460 F   0  0  0  0  0  0  0  0  0  0  0  0
    6.8670    3.4140   26.9910 F   0  0  0  0  0  0  0  0  0  0  0  0
    8.3140    2.0430   26.1650 F   0  0  0  0  0  0  0  0  0  0  0  0
    6.3390    2.6200   24.1810 C   0  0  0  0  0  0  0  0  0  0  0  0
    7.4390    2.0440   23.2880 C   0  0  0  0  0  0  0  0  0  0  0  0
    7.1410    0.6420   22.9850 N   0  0  0  0  0  0  0  0  0  0  0  0
    7.4570    0.1760   21.6940 C   0  0  0  0  0  0  0  0  0  0  0  0
    8.4030    0.5990   21.0620 O   0  0  0  0  0  0  0  0  0  0  0  0
    6.4860   -0.8210   21.0410 C   0  0  0  0  0  0  0  0  0  0  0  0
    5.8050   -0.1790   19.8450 C   0  0  0  0  0  0  0  0  0  0  0  0
    6.2370   -0.4370   18.5680 C   0  0  0  0  0  0  0  0  0  0  0  0
    5.7530    0.1380   17.4330 N   0  0  0  0  0  0  0  0  0  0  0  0
    4.7840    1.0120   17.5810 C   0  0  0  0  0  0  0  0  0  0  0  0
    4.2280    1.3810   18.8370 C   0  0  0  0  0  0  0  0  0  0  0  0
    3.1820    2.3330   18.9430 C   0  0  0  0  0  0  0  0  0  0  0  0
    2.6610    2.6650   20.1660 C   0  0  0  0  0  0  0  0  0  0  0  0
    3.1710    2.0560   21.3340 C   0  0  0  0  0  0  0  0  0  0  0  0
    4.1880    1.1340   21.2580 C   0  0  0  0  0  0  0  0  0  0  0  0
    4.7520    0.7740   20.0060 C   0  0  0  0  0  0  0  0  0  0  0  0
    4.5590    0.6740   22.1670 H   0  0  0  0  0  0  0  0  0  0  0  0
    2.7530    2.3270   22.2990 H   0  0  0  0  0  0  0  0  0  0  0  0
    1.8630    3.3980   20.2440 H   0  0  0  0  0  0  0  0  0  0  0  0
    2.8040    2.7980   18.0340 H   0  0  0  0  0  0  0  0  0  0  0  0
    4.3960    1.4890   16.6790 H   0  0  0  0  0  0  0  0  0  0  0  0
    7.0260   -1.1700   18.4020 H   0  0  0  0  0  0  0  0  0  0  0  0
    5.7520   -1.1930   21.7650 H   0  0  0  0  0  0  0  0  0  0  0  0
    7.0840   -1.6710   20.6930 H   0  0  0  0  0  0  0  0  0  0  0  0
    8.4250    2.1900   23.7490 H   0  0  0  0  0  0  0  0  0  0  0  0
    7.4530    2.5890   22.3410 H   0  0  0  0  0  0  0  0  0  0  0  0
    5.4110    2.6340   23.6000 H   0  0  0  0  0  0  0  0  0  0  0  0
    6.5550    3.6610   24.4380 H   0  0  0  0  0  0  0  0  0  0  0  0
    5.1150    2.1120   25.8710 H   0  0  0  0  0  0  0  0  0  0  0  0
    4.9990    0.1440   24.6830 H   0  0  0  0  0  0  0  0  0  0  0  0
    5.9960   -0.2760   26.0550 H   0  0  0  0  0  0  0  0  0  0  0  0
    6.5930   -1.1910   23.7630 H   0  0  0  0  0  0  0  0  0  0  0  0
    9.0000    0.2430   24.8750 H   0  0  0  0  0  0  0  0  0  0  0  0
    8.1860   -0.9720   25.8250 H   0  0  0  0  0  0  0  0  0  0  0  0
    8.5100   -2.6480   23.9630 H   0  0  0  0  0  0  0  0  0  0  0  0
    9.3610   -1.4230   23.0130 H   0  0  0  0  0  0  0  0  0  0  0  0
   10.0420   -1.9920   24.5380 H   0  0  0  0  0  0  0  0  0  0  0  0
  1  2  1  0  0  0  0
  1 44  1  0  0  0  0
  1 45  1  0  0  0  0
  1 46  1  0  0  0  0
  2  3  1  0  0  0  0
  2 42  1  0  0  0  0
  2 43  1  0  0  0  0
  3  4  1  0  0  0  0
  3 12  1  0  0  0  0
  3 41  1  6  0  0  0
  4  5  1  0  0  0  0
  4 39  1  0  0  0  0
  4 40  1  0  0  0  0
  5  6  1  0  0  0  0
  5 10  1  0  0  0  0
  5 38  1  1  0  0  0
  6  7  1  0  0  0  0
  6  8  1  0  0  0  0
  6  9  1  0  0  0  0
 10 11  1  0  0  0  0
 10 36  1  0  0  0  0
 10 37  1  0  0  0  0
 11 12  1  0  0  0  0
 11 34  1  0  0  0  0
 11 35  1  0  0  0  0
 12 13  1  0  0  0  0
 13 14  2  0  0  0  0
 13 15  1  0  0  0  0
 15 16  1  0  0  0  0
 15 32  1  0  0  0  0
 15 33  1  0  0  0  0
 16 17  2  0  0  0  0
 16 25  1  0  0  0  0
 17 18  1  0  0  0  0
 17 31  1  0  0  0  0
 18 19  2  0  0  0  0
 19 20  1  0  0  0  0
 19 30  1  0  0  0  0
 20 21  2  0  0  0  0
 20 25  1  0  0  0  0
 21 22  1  0  0  0  0
 21 29  1  0  0  0  0
 22 23  2  0  0  0  0
 22 28  1  0  0  0  0
 23 24  1  0  0  0  0
 23 27  1  0  0  0  0
 24 25  2  0  0  0  0
 24 26  1  0  0  0  0
M  END
>  <MODEL>
      24

$$$$
best_conformers_27.pdb
 OpenBabel02042510453D

 46 48  0  0  1  0  0  0  0  0999 V2000
    9.1070   -1.7330   24.0320 C   0  0  0  0  0  0  0  0  0  0  0  0
    8.3650   -0.6390   24.7920 C   0  0  0  0  0  0  0  0  0  0  0  0
    7.0160   -0.2580   24.1440 C   0  0  1  0  0  0  0  0  0  0  0  0
    5.9850    0.3060   25.1290 C   0  0  0  0  0  0  0  0  0  0  0  0
    6.0730    1.7990   25.4410 C   0  0  1  0  0  0  0  0  0  0  0  0
    7.0340    2.1440   26.5620 C   0  0  0  0  0  0  0  0  0  0  0  0
    6.8670    3.4150   26.9910 F   0  0  0  0  0  0  0  0  0  0  0  0
    6.8950    1.3570   27.6460 F   0  0  0  0  0  0  0  0  0  0  0  0
    8.3140    2.0430   26.1650 F   0  0  0  0  0  0  0  0  0  0  0  0
    6.3390    2.6200   24.1810 C   0  0  0  0  0  0  0  0  0  0  0  0
    7.4390    2.0440   23.2880 C   0  0  0  0  0  0  0  0  0  0  0  0
    7.1410    0.6420   22.9850 N   0  0  0  0  0  0  0  0  0  0  0  0
    7.4570    0.1760   21.6940 C   0  0  0  0  0  0  0  0  0  0  0  0
    8.4030    0.5990   21.0620 O   0  0  0  0  0  0  0  0  0  0  0  0
    6.4860   -0.8210   21.0410 C   0  0  0  0  0  0  0  0  0  0  0  0
    5.8050   -0.1790   19.8450 C   0  0  0  0  0  0  0  0  0  0  0  0
    6.2370   -0.4370   18.5680 C   0  0  0  0  0  0  0  0  0  0  0  0
    5.7530    0.1380   17.4330 N   0  0  0  0  0  0  0  0  0  0  0  0
    4.7840    1.0120   17.5810 C   0  0  0  0  0  0  0  0  0  0  0  0
    4.2280    1.3810   18.8370 C   0  0  0  0  0  0  0  0  0  0  0  0
    3.1820    2.3330   18.9430 C   0  0  0  0  0  0  0  0  0  0  0  0
    2.6610    2.6650   20.1660 C   0  0  0  0  0  0  0  0  0  0  0  0
    3.1710    2.0560   21.3340 C   0  0  0  0  0  0  0  0  0  0  0  0
    4.1880    1.1340   21.2580 C   0  0  0  0  0  0  0  0  0  0  0  0
    4.7520    0.7740   20.0060 C   0  0  0  0  0  0  0  0  0  0  0  0
    4.5590    0.6740   22.1670 H   0  0  0  0  0  0  0  0  0  0  0  0
    2.7530    2.3270   22.2990 H   0  0  0  0  0  0  0  0  0  0  0  0
    1.8630    3.3980   20.2450 H   0  0  0  0  0  0  0  0  0  0  0  0
    2.8040    2.7980   18.0340 H   0  0  0  0  0  0  0  0  0  0  0  0
    4.3960    1.4890   16.6790 H   0  0  0  0  0  0  0  0  0  0  0  0
    7.0260   -1.1700   18.4020 H   0  0  0  0  0  0  0  0  0  0  0  0
    5.7520   -1.1930   21.7650 H   0  0  0  0  0  0  0  0  0  0  0  0
    7.0840   -1.6710   20.6930 H   0  0  0  0  0  0  0  0  0  0  0  0
    7.4530    2.5890   22.3410 H   0  0  0  0  0  0  0  0  0  0  0  0
    8.4250    2.1900   23.7490 H   0  0  0  0  0  0  0  0  0  0  0  0
    6.5550    3.6610   24.4370 H   0  0  0  0  0  0  0  0  0  0  0  0
    5.4120    2.6340   23.6000 H   0  0  0  0  0  0  0  0  0  0  0  0
    5.1160    2.1120   25.8710 H   0  0  0  0  0  0  0  0  0  0  0  0
    4.9990    0.1450   24.6830 H   0  0  0  0  0  0  0  0  0  0  0  0
    5.9960   -0.2760   26.0550 H   0  0  0  0  0  0  0  0  0  0  0  0
    6.5930   -1.1910   23.7630 H   0  0  0  0  0  0  0  0  0  0  0  0
    8.1860   -0.9720   25.8250 H   0  0  0  0  0  0  0  0  0  0  0  0
    9.0000    0.2430   24.8750 H   0  0  0  0  0  0  0  0  0  0  0  0
    9.3610   -1.4240   23.0130 H   0  0  0  0  0  0  0  0  0  0  0  0
   10.0420   -1.9930   24.5380 H   0  0  0  0  0  0  0  0  0  0  0  0
    8.5100   -2.6480   23.9630 H   0  0  0  0  0  0  0  0  0  0  0  0
  1  2  1  0  0  0  0
  1 44  1  0  0  0  0
  1 45  1  0  0  0  0
  1 46  1  0  0  0  0
  2  3  1  0  0  0  0
  2 42  1  0  0  0  0
  2 43  1  0  0  0  0
  3  4  1  0  0  0  0
  3 12  1  0  0  0  0
  3 41  1  6  0  0  0
  4  5  1  0  0  0  0
  4 39  1  0  0  0  0
  4 40  1  0  0  0  0
  5  6  1  0  0  0  0
  5 10  1  0  0  0  0
  5 38  1  1  0  0  0
  6  7  1  0  0  0  0
  6  8  1  0  0  0  0
  6  9  1  0  0  0  0
 10 11  1  0  0  0  0
 10 36  1  0  0  0  0
 10 37  1  0  0  0  0
 11 12  1  0  0  0  0
 11 34  1  0  0  0  0
 11 35  1  0  0  0  0
 12 13  1  0  0  0  0
 13 14  2  0  0  0  0
 13 15  1  0  0  0  0
 15 16  1  0  0  0  0
 15 32  1  0  0  0  0
 15 33  1  0  0  0  0
 16 17  2  0  0  0  0
 16 25  1  0  0  0  0
 17 18  1  0  0  0  0
 17 31  1  0  0  0  0
 18 19  2  0  0  0  0
 19 20  1  0  0  0  0
 19 30  1  0  0  0  0
 20 21  2  0  0  0  0
 20 25  1  0  0  0  0
 21 22  1  0  0  0  0
 21 29  1  0  0  0  0
 22 23  2  0  0  0  0
 22 28  1  0  0  0  0
 23 24  1  0  0  0  0
 23 27  1  0  0  0  0
 24 25  2  0  0  0  0
 24 26  1  0  0  0  0
M  END
>  <MODEL>
      25

$$$$
best_conformers_27.pdb
 OpenBabel02042510453D

 46 48  0  0  1  0  0  0  0  0999 V2000
    8.1590   -2.0350   24.6020 C   0  0  0  0  0  0  0  0  0  0  0  0
    8.5950   -0.5630   24.6370 C   0  0  0  0  0  0  0  0  0  0  0  0
    9.4690   -0.1520   23.4340 C   0  0  1  0  0  0  0  0  0  0  0  0
   10.8550   -0.8110   23.6180 C   0  0  0  0  0  0  0  0  0  0  0  0
   11.7340   -0.7730   22.3740 C   0  0  1  0  0  0  0  0  0  0  0  0
   13.1120   -1.4160   22.5450 C   0  0  0  0  0  0  0  0  0  0  0  0
   13.9600   -0.6190   23.2200 F   0  0  0  0  0  0  0  0  0  0  0  0
   13.0850   -2.5960   23.1970 F   0  0  0  0  0  0  0  0  0  0  0  0
   13.6850   -1.6590   21.3450 F   0  0  0  0  0  0  0  0  0  0  0  0
   10.9770   -1.4400   21.2350 C   0  0  0  0  0  0  0  0  0  0  0  0
    9.6570   -0.7140   20.9890 C   0  0  0  0  0  0  0  0  0  0  0  0
    8.8070   -0.5440   22.1700 N   0  0  0  0  0  0  0  0  0  0  0  0
    7.5060   -0.0540   21.9720 C   0  0  0  0  0  0  0  0  0  0  0  0
    7.0630    0.8880   22.6010 O   0  0  0  0  0  0  0  0  0  0  0  0
    6.5800   -0.8380   21.0210 C   0  0  0  0  0  0  0  0  0  0  0  0
    5.9590   -0.1020   19.8480 C   0  0  0  0  0  0  0  0  0  0  0  0
    6.3790   -0.3830   18.5740 C   0  0  0  0  0  0  0  0  0  0  0  0
    5.8730    0.1490   17.4320 N   0  0  0  0  0  0  0  0  0  0  0  0
    4.8750    0.9920   17.5650 C   0  0  0  0  0  0  0  0  0  0  0  0
    4.3200    1.3760   18.8170 C   0  0  0  0  0  0  0  0  0  0  0  0
    3.2370    2.2900   18.9050 C   0  0  0  0  0  0  0  0  0  0  0  0
    2.6880    2.6010   20.1210 C   0  0  0  0  0  0  0  0  0  0  0  0
    3.2070    2.0170   21.2980 C   0  0  0  0  0  0  0  0  0  0  0  0
    4.2690    1.1510   21.2410 C   0  0  0  0  0  0  0  0  0  0  0  0
    4.8640    0.8080   19.9950 C   0  0  0  0  0  0  0  0  0  0  0  0
    4.6760    0.7400   22.1570 H   0  0  0  0  0  0  0  0  0  0  0  0
    2.7560    2.2600   22.2580 H   0  0  0  0  0  0  0  0  0  0  0  0
    1.8590    3.2990   20.1920 H   0  0  0  0  0  0  0  0  0  0  0  0
    2.8400    2.7290   17.9910 H   0  0  0  0  0  0  0  0  0  0  0  0
    4.4430    1.4060   16.6530 H   0  0  0  0  0  0  0  0  0  0  0  0
    7.1840   -1.1000   18.4150 H   0  0  0  0  0  0  0  0  0  0  0  0
    7.1030   -1.7270   20.6550 H   0  0  0  0  0  0  0  0  0  0  0  0
    5.7710   -1.1870   21.6800 H   0  0  0  0  0  0  0  0  0  0  0  0
    9.9010    0.2760   20.5840 H   0  0  0  0  0  0  0  0  0  0  0  0
    9.0830   -1.2320   20.2200 H   0  0  0  0  0  0  0  0  0  0  0  0
   10.8260   -2.5050   21.4470 H   0  0  0  0  0  0  0  0  0  0  0  0
   11.6110   -1.3900   20.3460 H   0  0  0  0  0  0  0  0  0  0  0  0
   11.9630    0.2730   22.1230 H   0  0  0  0  0  0  0  0  0  0  0  0
   11.3450   -0.3090   24.4560 H   0  0  0  0  0  0  0  0  0  0  0  0
   10.7240   -1.8500   23.9420 H   0  0  0  0  0  0  0  0  0  0  0  0
    9.6030    0.9460   23.4620 H   0  0  0  0  0  0  0  0  0  0  0  0
    7.7230    0.0900   24.6940 H   0  0  0  0  0  0  0  0  0  0  0  0
    9.1740   -0.3710   25.5480 H   0  0  0  0  0  0  0  0  0  0  0  0
    7.6330   -2.2690   23.6700 H   0  0  0  0  0  0  0  0  0  0  0  0
    9.0280   -2.7040   24.6590 H   0  0  0  0  0  0  0  0  0  0  0  0
    7.4920   -2.2800   25.4380 H   0  0  0  0  0  0  0  0  0  0  0  0
  1  2  1  0  0  0  0
  1 44  1  0  0  0  0
  1 45  1  0  0  0  0
  1 46  1  0  0  0  0
  2  3  1  0  0  0  0
  2 42  1  0  0  0  0
  2 43  1  0  0  0  0
  3  4  1  0  0  0  0
  3 12  1  0  0  0  0
  3 41  1  1  0  0  0
  4  5  1  0  0  0  0
  4 39  1  0  0  0  0
  4 40  1  0  0  0  0
  5  6  1  0  0  0  0
  5 10  1  0  0  0  0
  5 38  1  6  0  0  0
  6  7  1  0  0  0  0
  6  8  1  0  0  0  0
  6  9  1  0  0  0  0
 10 11  1  0  0  0  0
 10 36  1  0  0  0  0
 10 37  1  0  0  0  0
 11 12  1  0  0  0  0
 11 34  1  0  0  0  0
 11 35  1  0  0  0  0
 12 13  1  0  0  0  0
 13 14  2  0  0  0  0
 13 15  1  0  0  0  0
 15 16  1  0  0  0  0
 15 32  1  0  0  0  0
 15 33  1  0  0  0  0
 16 17  2  0  0  0  0
 16 25  1  0  0  0  0
 17 18  1  0  0  0  0
 17 31  1  0  0  0  0
 18 19  2  0  0  0  0
 19 20  1  0  0  0  0
 19 30  1  0  0  0  0
 20 21  2  0  0  0  0
 20 25  1  0  0  0  0
 21 22  1  0  0  0  0
 21 29  1  0  0  0  0
 22 23  2  0  0  0  0
 22 28  1  0  0  0  0
 23 24  1  0  0  0  0
 23 27  1  0  0  0  0
 24 25  2  0  0  0  0
 24 26  1  0  0  0  0
M  END
>  <MODEL>
      26

$$$$
