best_conformers_12.pdb
 OpenBabel02042510453D

 47 50  0  0  1  0  0  0  0  0999 V2000
    4.9130   -2.7580   20.9300 O   0  0  0  0  0  0  0  0  0  0  0  0
    5.6020   -2.0400   21.6400 C   0  0  0  0  0  0  0  0  0  0  0  0
    6.4240   -0.8880   21.0510 C   0  0  0  0  0  0  0  0  0  0  0  0
    5.7790   -0.2100   19.8680 C   0  0  0  0  0  0  0  0  0  0  0  0
    6.2310   -0.4620   18.6040 C   0  0  0  0  0  0  0  0  0  0  0  0
    5.7780    0.1200   17.4600 N   0  0  0  0  0  0  0  0  0  0  0  0
    4.8040    0.9930   17.5900 C   0  0  0  0  0  0  0  0  0  0  0  0
    4.2330    1.3600   18.8380 C   0  0  0  0  0  0  0  0  0  0  0  0
    3.1850    2.3140   18.9350 C   0  0  0  0  0  0  0  0  0  0  0  0
    2.6510    2.6360   20.1520 C   0  0  0  0  0  0  0  0  0  0  0  0
    3.1440    2.0290   21.3260 C   0  0  0  0  0  0  0  0  0  0  0  0
    4.1630    1.1100   21.2650 C   0  0  0  0  0  0  0  0  0  0  0  0
    4.7310    0.7460   20.0150 C   0  0  0  0  0  0  0  0  0  0  0  0
    4.5410    0.6630   22.1790 H   0  0  0  0  0  0  0  0  0  0  0  0
    2.7160    2.2950   22.2890 H   0  0  0  0  0  0  0  0  0  0  0  0
    1.8440    3.3650   20.2260 H   0  0  0  0  0  0  0  0  0  0  0  0
    2.8180    2.7820   18.0240 H   0  0  0  0  0  0  0  0  0  0  0  0
    4.4250    1.4580   16.6760 H   0  0  0  0  0  0  0  0  0  0  0  0
    7.0400   -1.1780   18.4540 H   0  0  0  0  0  0  0  0  0  0  0  0
    7.3770   -1.3270   20.7210 H   0  0  0  0  0  0  0  0  0  0  0  0
    6.6710   -0.1610   21.8300 H   0  0  0  0  0  0  0  0  0  0  0  0
    5.7170   -2.2960   22.9810 N   0  0  0  0  0  0  0  0  0  0  0  0
    5.0440   -3.4830   23.4850 C   0  0  0  0  0  0  0  0  0  0  0  0
    5.1620   -3.3980   25.0100 C   0  0  2  0  0  0  0  0  0  0  0  0
    3.9070   -3.8930   25.7010 C   0  0  0  0  0  0  0  0  0  0  0  0
    4.0690   -3.9140   27.0850 F   0  0  0  0  0  0  0  0  0  0  0  0
    3.6330   -4.9090   25.3990 H   0  0  0  0  0  0  0  0  0  0  0  0
    3.0740   -3.2250   25.4600 H   0  0  0  0  0  0  0  0  0  0  0  0
    5.5700   -1.9450   25.3480 C   0  0  0  0  0  0  0  0  0  0  0  0
    6.5270   -1.9120   26.5410 C   0  0  0  0  0  0  0  0  0  0  0  0
    6.5210   -0.4780   27.0730 C   0  0  0  0  0  0  0  0  0  0  0  0
    5.1800    0.1290   26.6040 C   0  0  0  0  0  0  0  0  0  0  0  0
    4.4550   -1.0000   25.8490 C   0  0  0  0  0  0  0  0  0  0  0  0
    3.8090   -0.6410   25.0390 H   0  0  0  0  0  0  0  0  0  0  0  0
    3.8260   -1.5390   26.5620 H   0  0  0  0  0  0  0  0  0  0  0  0
    4.5720    0.4900   27.4390 H   0  0  0  0  0  0  0  0  0  0  0  0
    5.3530    0.9870   25.9490 H   0  0  0  0  0  0  0  0  0  0  0  0
    6.6270   -0.4740   28.1620 H   0  0  0  0  0  0  0  0  0  0  0  0
    7.3620    0.0890   26.6640 H   0  0  0  0  0  0  0  0  0  0  0  0
    7.5190   -2.2760   26.2490 H   0  0  0  0  0  0  0  0  0  0  0  0
    6.1300   -2.6020   27.2910 H   0  0  0  0  0  0  0  0  0  0  0  0
    6.2160   -1.4260   24.0440 C   0  0  0  0  0  0  0  0  0  0  0  0
    7.3130   -1.4380   24.1180 H   0  0  0  0  0  0  0  0  0  0  0  0
    5.9200   -0.3940   23.8370 H   0  0  0  0  0  0  0  0  0  0  0  0
    5.9830   -4.0440   25.3510 H   0  0  0  0  0  0  0  0  0  0  0  0
    4.0150   -3.5200   23.1360 H   0  0  0  0  0  0  0  0  0  0  0  0
    5.5070   -4.3890   23.0770 H   0  0  0  0  0  0  0  0  0  0  0  0
  1  2  2  0  0  0  0
  2  3  1  0  0  0  0
  2 22  1  0  0  0  0
  3  4  1  0  0  0  0
  3 20  1  0  0  0  0
  3 21  1  0  0  0  0
  4  5  2  0  0  0  0
  4 13  1  0  0  0  0
  5  6  1  0  0  0  0
  5 19  1  0  0  0  0
  6  7  2  0  0  0  0
  7  8  1  0  0  0  0
  7 18  1  0  0  0  0
  8  9  2  0  0  0  0
  8 13  1  0  0  0  0
  9 10  1  0  0  0  0
  9 17  1  0  0  0  0
 10 11  2  0  0  0  0
 10 16  1  0  0  0  0
 11 12  1  0  0  0  0
 11 15  1  0  0  0  0
 12 13  2  0  0  0  0
 12 14  1  0  0  0  0
 22 23  1  0  0  0  0
 22 42  1  0  0  0  0
 23 24  1  0  0  0  0
 23 46  1  0  0  0  0
 23 47  1  0  0  0  0
 24 25  1  0  0  0  0
 24 29  1  0  0  0  0
 24 45  1  1  0  0  0
 25 26  1  0  0  0  0
 25 27  1  0  0  0  0
 25 28  1  0  0  0  0
 29 30  1  0  0  0  0
 29 33  1  0  0  0  0
 29 42  1  0  0  0  0
 30 31  1  0  0  0  0
 30 40  1  0  0  0  0
 30 41  1  0  0  0  0
 31 32  1  0  0  0  0
 31 38  1  0  0  0  0
 31 39  1  0  0  0  0
 32 33  1  0  0  0  0
 32 36  1  0  0  0  0
 32 37  1  0  0  0  0
 33 34  1  0  0  0  0
 33 35  1  0  0  0  0
 42 43  1  0  0  0  0
 42 44  1  0  0  0  0
M  END
>  <MODEL>
       1

$$$$
best_conformers_12.pdb
 OpenBabel02042510453D

 47 50  0  0  1  0  0  0  0  0999 V2000
    4.9070   -2.7780   20.9090 O   0  0  0  0  0  0  0  0  0  0  0  0
    5.5710   -2.0520   21.6330 C   0  0  0  0  0  0  0  0  0  0  0  0
    6.4070   -0.9010   21.0530 C   0  0  0  0  0  0  0  0  0  0  0  0
    5.7730   -0.2150   19.8690 C   0  0  0  0  0  0  0  0  0  0  0  0
    6.2300   -0.4640   18.6060 C   0  0  0  0  0  0  0  0  0  0  0  0
    5.7800    0.1200   17.4630 N   0  0  0  0  0  0  0  0  0  0  0  0
    4.8060    0.9920   17.5910 C   0  0  0  0  0  0  0  0  0  0  0  0
    4.2340    1.3590   18.8390 C   0  0  0  0  0  0  0  0  0  0  0  0
    3.1860    2.3130   18.9340 C   0  0  0  0  0  0  0  0  0  0  0  0
    2.6510    2.6350   20.1520 C   0  0  0  0  0  0  0  0  0  0  0  0
    3.1430    2.0270   21.3270 C   0  0  0  0  0  0  0  0  0  0  0  0
    4.1600    1.1070   21.2660 C   0  0  0  0  0  0  0  0  0  0  0  0
    4.7280    0.7440   20.0150 C   0  0  0  0  0  0  0  0  0  0  0  0
    4.5360    0.6560   22.1810 H   0  0  0  0  0  0  0  0  0  0  0  0
    2.7150    2.2960   22.2890 H   0  0  0  0  0  0  0  0  0  0  0  0
    1.8460    3.3640   20.2250 H   0  0  0  0  0  0  0  0  0  0  0  0
    2.8200    2.7810   18.0240 H   0  0  0  0  0  0  0  0  0  0  0  0
    4.4270    1.4560   16.6780 H   0  0  0  0  0  0  0  0  0  0  0  0
    7.0410   -1.1790   18.4600 H   0  0  0  0  0  0  0  0  0  0  0  0
    7.3590   -1.3470   20.7260 H   0  0  0  0  0  0  0  0  0  0  0  0
    6.6540   -0.1770   21.8340 H   0  0  0  0  0  0  0  0  0  0  0  0
    5.6420   -2.2850   22.9780 N   0  0  0  0  0  0  0  0  0  0  0  0
    5.0320   -3.5020   23.4940 C   0  0  0  0  0  0  0  0  0  0  0  0
    5.2250   -3.4130   25.0100 C   0  0  2  0  0  0  0  0  0  0  0  0
    4.0820   -4.0260   25.7780 C   0  0  0  0  0  0  0  0  0  0  0  0
    4.4060   -4.1870   27.1200 F   0  0  0  0  0  0  0  0  0  0  0  0
    3.8100   -5.0130   25.3890 H   0  0  0  0  0  0  0  0  0  0  0  0
    3.2130   -3.3660   25.7030 H   0  0  0  0  0  0  0  0  0  0  0  0
    5.5350   -1.9310   25.3500 C   0  0  0  0  0  0  0  0  0  0  0  0
    4.3250   -1.0580   25.7350 C   0  0  0  0  0  0  0  0  0  0  0  0
    4.1820   -1.1200   27.2640 C   0  0  0  0  0  0  0  0  0  0  0  0
    5.5850   -1.4740   27.8010 C   0  0  0  0  0  0  0  0  0  0  0  0
    6.4540   -1.8120   26.5750 C   0  0  0  0  0  0  0  0  0  0  0  0
    7.1850   -1.0170   26.4000 H   0  0  0  0  0  0  0  0  0  0  0  0
    7.0220   -2.7360   26.7210 H   0  0  0  0  0  0  0  0  0  0  0  0
    6.0300   -0.6360   28.3460 H   0  0  0  0  0  0  0  0  0  0  0  0
    5.5320   -2.3200   28.4880 H   0  0  0  0  0  0  0  0  0  0  0  0
    3.4530   -1.8730   27.5710 H   0  0  0  0  0  0  0  0  0  0  0  0
    3.8300   -0.1630   27.6590 H   0  0  0  0  0  0  0  0  0  0  0  0
    4.5620   -0.0260   25.4590 H   0  0  0  0  0  0  0  0  0  0  0  0
    3.4110   -1.3190   25.1900 H   0  0  0  0  0  0  0  0  0  0  0  0
    6.1920   -1.4480   24.0430 C   0  0  0  0  0  0  0  0  0  0  0  0
    7.2860   -1.5230   24.1120 H   0  0  0  0  0  0  0  0  0  0  0  0
    5.9450   -0.4050   23.8340 H   0  0  0  0  0  0  0  0  0  0  0  0
    6.1250   -3.9850   25.2730 H   0  0  0  0  0  0  0  0  0  0  0  0
    5.5150   -4.3860   23.0590 H   0  0  0  0  0  0  0  0  0  0  0  0
    3.9940   -3.5890   23.1900 H   0  0  0  0  0  0  0  0  0  0  0  0
  1  2  2  0  0  0  0
  2  3  1  0  0  0  0
  2 22  1  0  0  0  0
  3  4  1  0  0  0  0
  3 20  1  0  0  0  0
  3 21  1  0  0  0  0
  4  5  2  0  0  0  0
  4 13  1  0  0  0  0
  5  6  1  0  0  0  0
  5 19  1  0  0  0  0
  6  7  2  0  0  0  0
  7  8  1  0  0  0  0
  7 18  1  0  0  0  0
  8  9  2  0  0  0  0
  8 13  1  0  0  0  0
  9 10  1  0  0  0  0
  9 17  1  0  0  0  0
 10 11  2  0  0  0  0
 10 16  1  0  0  0  0
 11 12  1  0  0  0  0
 11 15  1  0  0  0  0
 12 13  2  0  0  0  0
 12 14  1  0  0  0  0
 22 23  1  0  0  0  0
 22 42  1  0  0  0  0
 23 24  1  0  0  0  0
 23 46  1  0  0  0  0
 23 47  1  0  0  0  0
 24 25  1  0  0  0  0
 24 29  1  0  0  0  0
 24 45  1  1  0  0  0
 25 26  1  0  0  0  0
 25 27  1  0  0  0  0
 25 28  1  0  0  0  0
 29 30  1  0  0  0  0
 29 33  1  0  0  0  0
 29 42  1  0  0  0  0
 30 31  1  0  0  0  0
 30 40  1  0  0  0  0
 30 41  1  0  0  0  0
 31 32  1  0  0  0  0
 31 38  1  0  0  0  0
 31 39  1  0  0  0  0
 32 33  1  0  0  0  0
 32 36  1  0  0  0  0
 32 37  1  0  0  0  0
 33 34  1  0  0  0  0
 33 35  1  0  0  0  0
 42 43  1  0  0  0  0
 42 44  1  0  0  0  0
M  END
>  <MODEL>
       2

$$$$
best_conformers_12.pdb
 OpenBabel02042510453D

 47 50  0  0  1  0  0  0  0  0999 V2000
    4.8570   -2.7480   20.9220 O   0  0  0  0  0  0  0  0  0  0  0  0
    5.5890   -2.0720   21.6250 C   0  0  0  0  0  0  0  0  0  0  0  0
    6.4060   -0.9050   21.0570 C   0  0  0  0  0  0  0  0  0  0  0  0
    5.7820   -0.2210   19.8690 C   0  0  0  0  0  0  0  0  0  0  0  0
    6.2440   -0.4790   18.6080 C   0  0  0  0  0  0  0  0  0  0  0  0
    5.7910    0.1000   17.4600 N   0  0  0  0  0  0  0  0  0  0  0  0
    4.8210    0.9730   17.5950 C   0  0  0  0  0  0  0  0  0  0  0  0
    4.2320    1.3380   18.8370 C   0  0  0  0  0  0  0  0  0  0  0  0
    3.1910    2.3020   18.9280 C   0  0  0  0  0  0  0  0  0  0  0  0
    2.6560    2.6300   20.1430 C   0  0  0  0  0  0  0  0  0  0  0  0
    3.1420    2.0220   21.3210 C   0  0  0  0  0  0  0  0  0  0  0  0
    4.1530    1.0950   21.2640 C   0  0  0  0  0  0  0  0  0  0  0  0
    4.7240    0.7250   20.0140 C   0  0  0  0  0  0  0  0  0  0  0  0
    4.5240    0.6530   22.1830 H   0  0  0  0  0  0  0  0  0  0  0  0
    2.7140    2.3010   22.2800 H   0  0  0  0  0  0  0  0  0  0  0  0
    1.8570    3.3630   20.2090 H   0  0  0  0  0  0  0  0  0  0  0  0
    2.8370    2.7730   18.0140 H   0  0  0  0  0  0  0  0  0  0  0  0
    4.4480    1.4420   16.6830 H   0  0  0  0  0  0  0  0  0  0  0  0
    7.0580   -1.1930   18.4730 H   0  0  0  0  0  0  0  0  0  0  0  0
    7.3680   -1.3340   20.7480 H   0  0  0  0  0  0  0  0  0  0  0  0
    6.6430   -0.1720   21.8340 H   0  0  0  0  0  0  0  0  0  0  0  0
    5.7750   -2.3590   22.9460 N   0  0  0  0  0  0  0  0  0  0  0  0
    6.3410   -1.4970   23.9800 C   0  0  0  0  0  0  0  0  0  0  0  0
    5.8010   -2.1030   25.2880 C   0  0  2  0  0  0  0  0  0  0  0  0
    6.7160   -1.9360   26.4840 C   0  0  0  0  0  0  0  0  0  0  0  0
    6.8910   -0.5840   26.7570 F   0  0  0  0  0  0  0  0  0  0  0  0
    7.7010   -2.3800   26.2870 H   0  0  0  0  0  0  0  0  0  0  0  0
    6.2960   -2.4110   27.3840 H   0  0  0  0  0  0  0  0  0  0  0  0
    5.3810   -3.5590   24.9830 C   0  0  0  0  0  0  0  0  0  0  0  0
    6.3400   -4.7390   25.2910 C   0  0  0  0  0  0  0  0  0  0  0  0
    5.4090   -5.9750   25.2280 C   0  0  0  0  0  0  0  0  0  0  0  0
    4.0250   -5.4820   25.7090 C   0  0  0  0  0  0  0  0  0  0  0  0
    4.1500   -3.9580   25.8190 C   0  0  0  0  0  0  0  0  0  0  0  0
    4.3160   -3.6580   26.8620 H   0  0  0  0  0  0  0  0  0  0  0  0
    3.2630   -3.4160   25.4740 H   0  0  0  0  0  0  0  0  0  0  0  0
    3.2490   -5.7530   24.9860 H   0  0  0  0  0  0  0  0  0  0  0  0
    3.7390   -5.9100   26.6750 H   0  0  0  0  0  0  0  0  0  0  0  0
    5.7710   -6.8190   25.8210 H   0  0  0  0  0  0  0  0  0  0  0  0
    5.3300   -6.3370   24.1960 H   0  0  0  0  0  0  0  0  0  0  0  0
    6.7680   -4.6570   26.2990 H   0  0  0  0  0  0  0  0  0  0  0  0
    7.1630   -4.8150   24.5710 H   0  0  0  0  0  0  0  0  0  0  0  0
    5.0860   -3.5320   23.4680 C   0  0  0  0  0  0  0  0  0  0  0  0
    5.4230   -4.4330   22.9360 H   0  0  0  0  0  0  0  0  0  0  0  0
    4.0250   -3.4400   23.2470 H   0  0  0  0  0  0  0  0  0  0  0  0
    4.8700   -1.5640   25.5070 H   0  0  0  0  0  0  0  0  0  0  0  0
    7.4370   -1.5040   23.9470 H   0  0  0  0  0  0  0  0  0  0  0  0
    6.0030   -0.4510   23.8970 H   0  0  0  0  0  0  0  0  0  0  0  0
  1  2  2  0  0  0  0
  2  3  1  0  0  0  0
  2 22  1  0  0  0  0
  3  4  1  0  0  0  0
  3 20  1  0  0  0  0
  3 21  1  0  0  0  0
  4  5  2  0  0  0  0
  4 13  1  0  0  0  0
  5  6  1  0  0  0  0
  5 19  1  0  0  0  0
  6  7  2  0  0  0  0
  7  8  1  0  0  0  0
  7 18  1  0  0  0  0
  8  9  2  0  0  0  0
  8 13  1  0  0  0  0
  9 10  1  0  0  0  0
  9 17  1  0  0  0  0
 10 11  2  0  0  0  0
 10 16  1  0  0  0  0
 11 12  1  0  0  0  0
 11 15  1  0  0  0  0
 12 13  2  0  0  0  0
 12 14  1  0  0  0  0
 22 23  1  0  0  0  0
 22 42  1  0  0  0  0
 23 24  1  0  0  0  0
 23 46  1  0  0  0  0
 23 47  1  0  0  0  0
 24 25  1  0  0  0  0
 24 29  1  0  0  0  0
 24 45  1  1  0  0  0
 25 26  1  0  0  0  0
 25 27  1  0  0  0  0
 25 28  1  0  0  0  0
 29 30  1  0  0  0  0
 29 33  1  0  0  0  0
 29 42  1  0  0  0  0
 30 31  1  0  0  0  0
 30 40  1  0  0  0  0
 30 41  1  0  0  0  0
 31 32  1  0  0  0  0
 31 38  1  0  0  0  0
 31 39  1  0  0  0  0
 32 33  1  0  0  0  0
 32 36  1  0  0  0  0
 32 37  1  0  0  0  0
 33 34  1  0  0  0  0
 33 35  1  0  0  0  0
 42 43  1  0  0  0  0
 42 44  1  0  0  0  0
M  END
>  <MODEL>
       3

$$$$
best_conformers_12.pdb
 OpenBabel02042510453D

 47 50  0  0  1  0  0  0  0  0999 V2000
    4.8990   -2.7820   20.9060 O   0  0  0  0  0  0  0  0  0  0  0  0
    5.5650   -2.0620   21.6320 C   0  0  0  0  0  0  0  0  0  0  0  0
    6.4020   -0.9070   21.0550 C   0  0  0  0  0  0  0  0  0  0  0  0
    5.7720   -0.2180   19.8710 C   0  0  0  0  0  0  0  0  0  0  0  0
    6.2300   -0.4650   18.6080 C   0  0  0  0  0  0  0  0  0  0  0  0
    5.7810    0.1200   17.4650 N   0  0  0  0  0  0  0  0  0  0  0  0
    4.8070    0.9910   17.5920 C   0  0  0  0  0  0  0  0  0  0  0  0
    4.2340    1.3590   18.8400 C   0  0  0  0  0  0  0  0  0  0  0  0
    3.1860    2.3120   18.9350 C   0  0  0  0  0  0  0  0  0  0  0  0
    2.6510    2.6350   20.1520 C   0  0  0  0  0  0  0  0  0  0  0  0
    3.1430    2.0270   21.3270 C   0  0  0  0  0  0  0  0  0  0  0  0
    4.1590    1.1060   21.2660 C   0  0  0  0  0  0  0  0  0  0  0  0
    4.7280    0.7420   20.0160 C   0  0  0  0  0  0  0  0  0  0  0  0
    4.5360    0.6550   22.1810 H   0  0  0  0  0  0  0  0  0  0  0  0
    2.7140    2.2950   22.2890 H   0  0  0  0  0  0  0  0  0  0  0  0
    1.8460    3.3640   20.2250 H   0  0  0  0  0  0  0  0  0  0  0  0
    2.8210    2.7810   18.0240 H   0  0  0  0  0  0  0  0  0  0  0  0
    4.4280    1.4560   16.6780 H   0  0  0  0  0  0  0  0  0  0  0  0
    7.0420   -1.1790   18.4610 H   0  0  0  0  0  0  0  0  0  0  0  0
    7.3550   -1.3510   20.7300 H   0  0  0  0  0  0  0  0  0  0  0  0
    6.6460   -0.1840   21.8380 H   0  0  0  0  0  0  0  0  0  0  0  0
    5.6400   -2.3030   22.9760 N   0  0  0  0  0  0  0  0  0  0  0  0
    5.0350   -3.5230   23.4920 C   0  0  0  0  0  0  0  0  0  0  0  0
    5.2350   -3.4390   25.0110 C   0  0  2  0  0  0  0  0  0  0  0  0
    4.0780   -4.0240   25.7840 C   0  0  0  0  0  0  0  0  0  0  0  0
    3.8120   -5.3120   25.3360 F   0  0  0  0  0  0  0  0  0  0  0  0
    3.1890   -3.4160   25.5900 H   0  0  0  0  0  0  0  0  0  0  0  0
    4.2630   -4.0860   26.8630 H   0  0  0  0  0  0  0  0  0  0  0  0
    5.5580   -1.9630   25.3500 C   0  0  0  0  0  0  0  0  0  0  0  0
    6.4950   -1.8480   26.5590 C   0  0  0  0  0  0  0  0  0  0  0  0
    5.6160   -1.6740   27.8090 C   0  0  0  0  0  0  0  0  0  0  0  0
    4.2450   -1.1690   27.3070 C   0  0  0  0  0  0  0  0  0  0  0  0
    4.3630   -1.0830   25.7740 C   0  0  0  0  0  0  0  0  0  0  0  0
    4.6120   -0.0510   25.5130 H   0  0  0  0  0  0  0  0  0  0  0  0
    3.4390   -1.3190   25.2360 H   0  0  0  0  0  0  0  0  0  0  0  0
    4.0000   -0.1870   27.7250 H   0  0  0  0  0  0  0  0  0  0  0  0
    3.4370   -1.8380   27.6200 H   0  0  0  0  0  0  0  0  0  0  0  0
    6.0840   -0.9700   28.5060 H   0  0  0  0  0  0  0  0  0  0  0  0
    5.5050   -2.6220   28.3430 H   0  0  0  0  0  0  0  0  0  0  0  0
    7.1360   -0.9710   26.4300 H   0  0  0  0  0  0  0  0  0  0  0  0
    7.1570   -2.7190   26.6220 H   0  0  0  0  0  0  0  0  0  0  0  0
    6.1940   -1.4660   24.0390 C   0  0  0  0  0  0  0  0  0  0  0  0
    5.9340   -0.4250   23.8390 H   0  0  0  0  0  0  0  0  0  0  0  0
    7.2910   -1.5280   24.0910 H   0  0  0  0  0  0  0  0  0  0  0  0
    6.1310   -4.0240   25.2610 H   0  0  0  0  0  0  0  0  0  0  0  0
    3.9930   -3.6160   23.2040 H   0  0  0  0  0  0  0  0  0  0  0  0
    5.5150   -4.4070   23.0600 H   0  0  0  0  0  0  0  0  0  0  0  0
  1  2  2  0  0  0  0
  2  3  1  0  0  0  0
  2 22  1  0  0  0  0
  3  4  1  0  0  0  0
  3 20  1  0  0  0  0
  3 21  1  0  0  0  0
  4  5  2  0  0  0  0
  4 13  1  0  0  0  0
  5  6  1  0  0  0  0
  5 19  1  0  0  0  0
  6  7  2  0  0  0  0
  7  8  1  0  0  0  0
  7 18  1  0  0  0  0
  8  9  2  0  0  0  0
  8 13  1  0  0  0  0
  9 10  1  0  0  0  0
  9 17  1  0  0  0  0
 10 11  2  0  0  0  0
 10 16  1  0  0  0  0
 11 12  1  0  0  0  0
 11 15  1  0  0  0  0
 12 13  2  0  0  0  0
 12 14  1  0  0  0  0
 22 23  1  0  0  0  0
 22 42  1  0  0  0  0
 23 24  1  0  0  0  0
 23 46  1  0  0  0  0
 23 47  1  0  0  0  0
 24 25  1  0  0  0  0
 24 29  1  0  0  0  0
 24 45  1  1  0  0  0
 25 26  1  0  0  0  0
 25 27  1  0  0  0  0
 25 28  1  0  0  0  0
 29 30  1  0  0  0  0
 29 33  1  0  0  0  0
 29 42  1  0  0  0  0
 30 31  1  0  0  0  0
 30 40  1  0  0  0  0
 30 41  1  0  0  0  0
 31 32  1  0  0  0  0
 31 38  1  0  0  0  0
 31 39  1  0  0  0  0
 32 33  1  0  0  0  0
 32 36  1  0  0  0  0
 32 37  1  0  0  0  0
 33 34  1  0  0  0  0
 33 35  1  0  0  0  0
 42 43  1  0  0  0  0
 42 44  1  0  0  0  0
M  END
>  <MODEL>
       4

$$$$
best_conformers_12.pdb
 OpenBabel02042510453D

 47 50  0  0  1  0  0  0  0  0999 V2000
    4.8610   -2.7540   20.9310 O   0  0  0  0  0  0  0  0  0  0  0  0
    5.5810   -2.0600   21.6270 C   0  0  0  0  0  0  0  0  0  0  0  0
    6.4060   -0.9030   21.0480 C   0  0  0  0  0  0  0  0  0  0  0  0
    5.7750   -0.2220   19.8660 C   0  0  0  0  0  0  0  0  0  0  0  0
    6.2380   -0.4750   18.6040 C   0  0  0  0  0  0  0  0  0  0  0  0
    5.7900    0.1090   17.4620 N   0  0  0  0  0  0  0  0  0  0  0  0
    4.8160    0.9790   17.5920 C   0  0  0  0  0  0  0  0  0  0  0  0
    4.2330    1.3460   18.8380 C   0  0  0  0  0  0  0  0  0  0  0  0
    3.1920    2.3050   18.9320 C   0  0  0  0  0  0  0  0  0  0  0  0
    2.6540    2.6330   20.1450 C   0  0  0  0  0  0  0  0  0  0  0  0
    3.1440    2.0220   21.3240 C   0  0  0  0  0  0  0  0  0  0  0  0
    4.1570    1.0990   21.2650 C   0  0  0  0  0  0  0  0  0  0  0  0
    4.7240    0.7300   20.0140 C   0  0  0  0  0  0  0  0  0  0  0  0
    4.5310    0.6540   22.1850 H   0  0  0  0  0  0  0  0  0  0  0  0
    2.7160    2.2980   22.2820 H   0  0  0  0  0  0  0  0  0  0  0  0
    1.8520    3.3630   20.2150 H   0  0  0  0  0  0  0  0  0  0  0  0
    2.8320    2.7760   18.0190 H   0  0  0  0  0  0  0  0  0  0  0  0
    4.4420    1.4460   16.6800 H   0  0  0  0  0  0  0  0  0  0  0  0
    7.0540   -1.1860   18.4730 H   0  0  0  0  0  0  0  0  0  0  0  0
    6.6390   -0.1770   21.8310 H   0  0  0  0  0  0  0  0  0  0  0  0
    7.3680   -1.3390   20.7390 H   0  0  0  0  0  0  0  0  0  0  0  0
    5.7550   -2.3350   22.9500 N   0  0  0  0  0  0  0  0  0  0  0  0
    6.3300   -1.4830   23.9910 C   0  0  0  0  0  0  0  0  0  0  0  0
    5.7750   -2.0860   25.2900 C   0  0  2  0  0  0  0  0  0  0  0  0
    6.6820   -1.9270   26.4910 C   0  0  0  0  0  0  0  0  0  0  0  0
    7.9300   -2.4620   26.1920 F   0  0  0  0  0  0  0  0  0  0  0  0
    6.8270   -0.8710   26.7600 H   0  0  0  0  0  0  0  0  0  0  0  0
    6.2880   -2.4680   27.3630 H   0  0  0  0  0  0  0  0  0  0  0  0
    5.3460   -3.5450   24.9820 C   0  0  0  0  0  0  0  0  0  0  0  0
    4.1030   -3.9140   25.8110 C   0  0  0  0  0  0  0  0  0  0  0  0
    3.9390   -5.4360   25.7250 C   0  0  0  0  0  0  0  0  0  0  0  0
    5.3170   -5.9620   25.2670 C   0  0  0  0  0  0  0  0  0  0  0  0
    6.2750   -4.7450   25.3130 C   0  0  0  0  0  0  0  0  0  0  0  0
    6.7230   -4.6610   26.3080 H   0  0  0  0  0  0  0  0  0  0  0  0
    7.0920   -4.8400   24.5900 H   0  0  0  0  0  0  0  0  0  0  0  0
    5.2520   -6.3400   24.2400 H   0  0  0  0  0  0  0  0  0  0  0  0
    5.6600   -6.8020   25.8750 H   0  0  0  0  0  0  0  0  0  0  0  0
    3.6290   -5.8510   26.6920 H   0  0  0  0  0  0  0  0  0  0  0  0
    3.1740   -5.7070   24.9920 H   0  0  0  0  0  0  0  0  0  0  0  0
    4.2540   -3.6160   26.8570 H   0  0  0  0  0  0  0  0  0  0  0  0
    3.2320   -3.3650   25.4500 H   0  0  0  0  0  0  0  0  0  0  0  0
    5.0750   -3.5150   23.4680 C   0  0  0  0  0  0  0  0  0  0  0  0
    4.0220   -3.4530   23.2260 H   0  0  0  0  0  0  0  0  0  0  0  0
    5.4170   -4.4200   22.9540 H   0  0  0  0  0  0  0  0  0  0  0  0
    4.8420   -1.5420   25.4900 H   0  0  0  0  0  0  0  0  0  0  0  0
    7.4260   -1.5080   23.9850 H   0  0  0  0  0  0  0  0  0  0  0  0
    5.9980   -0.4360   23.8780 H   0  0  0  0  0  0  0  0  0  0  0  0
  1  2  2  0  0  0  0
  2  3  1  0  0  0  0
  2 22  1  0  0  0  0
  3  4  1  0  0  0  0
  3 20  1  0  0  0  0
  3 21  1  0  0  0  0
  4  5  2  0  0  0  0
  4 13  1  0  0  0  0
  5  6  1  0  0  0  0
  5 19  1  0  0  0  0
  6  7  2  0  0  0  0
  7  8  1  0  0  0  0
  7 18  1  0  0  0  0
  8  9  2  0  0  0  0
  8 13  1  0  0  0  0
  9 10  1  0  0  0  0
  9 17  1  0  0  0  0
 10 11  2  0  0  0  0
 10 16  1  0  0  0  0
 11 12  1  0  0  0  0
 11 15  1  0  0  0  0
 12 13  2  0  0  0  0
 12 14  1  0  0  0  0
 22 23  1  0  0  0  0
 22 42  1  0  0  0  0
 23 24  1  0  0  0  0
 23 46  1  0  0  0  0
 23 47  1  0  0  0  0
 24 25  1  0  0  0  0
 24 29  1  0  0  0  0
 24 45  1  1  0  0  0
 25 26  1  0  0  0  0
 25 27  1  0  0  0  0
 25 28  1  0  0  0  0
 29 30  1  0  0  0  0
 29 33  1  0  0  0  0
 29 42  1  0  0  0  0
 30 31  1  0  0  0  0
 30 40  1  0  0  0  0
 30 41  1  0  0  0  0
 31 32  1  0  0  0  0
 31 38  1  0  0  0  0
 31 39  1  0  0  0  0
 32 33  1  0  0  0  0
 32 36  1  0  0  0  0
 32 37  1  0  0  0  0
 33 34  1  0  0  0  0
 33 35  1  0  0  0  0
 42 43  1  0  0  0  0
 42 44  1  0  0  0  0
M  END
>  <MODEL>
       5

$$$$
best_conformers_12.pdb
 OpenBabel02042510453D

 47 50  0  0  1  0  0  0  0  0999 V2000
    4.9150   -2.7610   20.9310 O   0  0  0  0  0  0  0  0  0  0  0  0
    5.5990   -2.0420   21.6430 C   0  0  0  0  0  0  0  0  0  0  0  0
    6.4230   -0.8890   21.0520 C   0  0  0  0  0  0  0  0  0  0  0  0
    5.7790   -0.2100   19.8680 C   0  0  0  0  0  0  0  0  0  0  0  0
    6.2310   -0.4630   18.6040 C   0  0  0  0  0  0  0  0  0  0  0  0
    5.7770    0.1210   17.4600 N   0  0  0  0  0  0  0  0  0  0  0  0
    4.8050    0.9930   17.5910 C   0  0  0  0  0  0  0  0  0  0  0  0
    4.2330    1.3610   18.8380 C   0  0  0  0  0  0  0  0  0  0  0  0
    3.1850    2.3140   18.9350 C   0  0  0  0  0  0  0  0  0  0  0  0
    2.6510    2.6350   20.1520 C   0  0  0  0  0  0  0  0  0  0  0  0
    3.1440    2.0280   21.3250 C   0  0  0  0  0  0  0  0  0  0  0  0
    4.1620    1.1110   21.2650 C   0  0  0  0  0  0  0  0  0  0  0  0
    4.7310    0.7460   20.0150 C   0  0  0  0  0  0  0  0  0  0  0  0
    4.5410    0.6630   22.1800 H   0  0  0  0  0  0  0  0  0  0  0  0
    2.7160    2.2950   22.2890 H   0  0  0  0  0  0  0  0  0  0  0  0
    1.8440    3.3640   20.2260 H   0  0  0  0  0  0  0  0  0  0  0  0
    2.8180    2.7820   18.0240 H   0  0  0  0  0  0  0  0  0  0  0  0
    4.4250    1.4590   16.6760 H   0  0  0  0  0  0  0  0  0  0  0  0
    7.0400   -1.1780   18.4540 H   0  0  0  0  0  0  0  0  0  0  0  0
    6.6710   -0.1630   21.8300 H   0  0  0  0  0  0  0  0  0  0  0  0
    7.3760   -1.3280   20.7210 H   0  0  0  0  0  0  0  0  0  0  0  0
    5.7090   -2.2970   22.9840 N   0  0  0  0  0  0  0  0  0  0  0  0
    5.0390   -3.4850   23.4910 C   0  0  0  0  0  0  0  0  0  0  0  0
    5.1610   -3.3960   25.0130 C   0  0  2  0  0  0  0  0  0  0  0  0
    3.9240   -3.8910   25.7360 C   0  0  0  0  0  0  0  0  0  0  0  0
    3.6630   -5.2120   25.4040 F   0  0  0  0  0  0  0  0  0  0  0  0
    4.0290   -3.8440   26.8310 H   0  0  0  0  0  0  0  0  0  0  0  0
    3.0620   -3.2960   25.4180 H   0  0  0  0  0  0  0  0  0  0  0  0
    5.5390   -1.9360   25.3490 C   0  0  0  0  0  0  0  0  0  0  0  0
    4.4030   -0.9900   25.8070 C   0  0  0  0  0  0  0  0  0  0  0  0
    5.0990    0.1470   26.5770 C   0  0  0  0  0  0  0  0  0  0  0  0
    6.4340   -0.4430   27.0840 C   0  0  0  0  0  0  0  0  0  0  0  0
    6.4720   -1.8810   26.5620 C   0  0  0  0  0  0  0  0  0  0  0  0
    6.0800   -2.5720   27.3180 H   0  0  0  0  0  0  0  0  0  0  0  0
    7.4730   -2.2310   26.2940 H   0  0  0  0  0  0  0  0  0  0  0  0
    6.5120   -0.4300   28.1750 H   0  0  0  0  0  0  0  0  0  0  0  0
    7.2780    0.1310   26.6910 H   0  0  0  0  0  0  0  0  0  0  0  0
    4.4670    0.5050   27.3940 H   0  0  0  0  0  0  0  0  0  0  0  0
    5.2800    1.0050   25.9240 H   0  0  0  0  0  0  0  0  0  0  0  0
    3.7850   -0.6410   24.9730 H   0  0  0  0  0  0  0  0  0  0  0  0
    3.7400   -1.5140   26.5030 H   0  0  0  0  0  0  0  0  0  0  0  0
    6.2040   -1.4250   24.0510 C   0  0  0  0  0  0  0  0  0  0  0  0
    5.9160   -0.3930   23.8360 H   0  0  0  0  0  0  0  0  0  0  0  0
    7.3010   -1.4450   24.1360 H   0  0  0  0  0  0  0  0  0  0  0  0
    5.9970   -4.0270   25.3400 H   0  0  0  0  0  0  0  0  0  0  0  0
    4.0060   -3.5320   23.1530 H   0  0  0  0  0  0  0  0  0  0  0  0
    5.5000   -4.3940   23.0890 H   0  0  0  0  0  0  0  0  0  0  0  0
  1  2  2  0  0  0  0
  2  3  1  0  0  0  0
  2 22  1  0  0  0  0
  3  4  1  0  0  0  0
  3 20  1  0  0  0  0
  3 21  1  0  0  0  0
  4  5  2  0  0  0  0
  4 13  1  0  0  0  0
  5  6  1  0  0  0  0
  5 19  1  0  0  0  0
  6  7  2  0  0  0  0
  7  8  1  0  0  0  0
  7 18  1  0  0  0  0
  8  9  2  0  0  0  0
  8 13  1  0  0  0  0
  9 10  1  0  0  0  0
  9 17  1  0  0  0  0
 10 11  2  0  0  0  0
 10 16  1  0  0  0  0
 11 12  1  0  0  0  0
 11 15  1  0  0  0  0
 12 13  2  0  0  0  0
 12 14  1  0  0  0  0
 22 23  1  0  0  0  0
 22 42  1  0  0  0  0
 23 24  1  0  0  0  0
 23 46  1  0  0  0  0
 23 47  1  0  0  0  0
 24 25  1  0  0  0  0
 24 29  1  0  0  0  0
 24 45  1  1  0  0  0
 25 26  1  0  0  0  0
 25 27  1  0  0  0  0
 25 28  1  0  0  0  0
 29 30  1  0  0  0  0
 29 33  1  0  0  0  0
 29 42  1  0  0  0  0
 30 31  1  0  0  0  0
 30 40  1  0  0  0  0
 30 41  1  0  0  0  0
 31 32  1  0  0  0  0
 31 38  1  0  0  0  0
 31 39  1  0  0  0  0
 32 33  1  0  0  0  0
 32 36  1  0  0  0  0
 32 37  1  0  0  0  0
 33 34  1  0  0  0  0
 33 35  1  0  0  0  0
 42 43  1  0  0  0  0
 42 44  1  0  0  0  0
M  END
>  <MODEL>
       6

$$$$
best_conformers_12.pdb
 OpenBabel02042510453D

 47 50  0  0  1  0  0  0  0  0999 V2000
    8.1170    0.9100   21.2440 O   0  0  0  0  0  0  0  0  0  0  0  0
    7.3710    0.1560   21.8500 C   0  0  0  0  0  0  0  0  0  0  0  0
    6.4560   -0.8150   21.0610 C   0  0  0  0  0  0  0  0  0  0  0  0
    5.8100   -0.1670   19.8590 C   0  0  0  0  0  0  0  0  0  0  0  0
    6.2460   -0.4360   18.5870 C   0  0  0  0  0  0  0  0  0  0  0  0
    5.7700    0.1370   17.4480 N   0  0  0  0  0  0  0  0  0  0  0  0
    4.7970    1.0060   17.5870 C   0  0  0  0  0  0  0  0  0  0  0  0
    4.2290    1.3730   18.8390 C   0  0  0  0  0  0  0  0  0  0  0  0
    3.1810    2.3240   18.9430 C   0  0  0  0  0  0  0  0  0  0  0  0
    2.6590    2.6570   20.1610 C   0  0  0  0  0  0  0  0  0  0  0  0
    3.1680    2.0520   21.3370 C   0  0  0  0  0  0  0  0  0  0  0  0
    4.1850    1.1360   21.2640 C   0  0  0  0  0  0  0  0  0  0  0  0
    4.7440    0.7710   20.0090 C   0  0  0  0  0  0  0  0  0  0  0  0
    4.5640    0.6810   22.1760 H   0  0  0  0  0  0  0  0  0  0  0  0
    2.7490    2.3220   22.3020 H   0  0  0  0  0  0  0  0  0  0  0  0
    1.8580    3.3880   20.2410 H   0  0  0  0  0  0  0  0  0  0  0  0
    2.8100    2.7860   18.0290 H   0  0  0  0  0  0  0  0  0  0  0  0
    4.4060    1.4710   16.6810 H   0  0  0  0  0  0  0  0  0  0  0  0
    7.0390   -1.1670   18.4150 H   0  0  0  0  0  0  0  0  0  0  0  0
    7.1120   -1.6130   20.6920 H   0  0  0  0  0  0  0  0  0  0  0  0
    5.7190   -1.3000   21.7110 H   0  0  0  0  0  0  0  0  0  0  0  0
    7.3600    0.1110   23.2110 N   0  0  0  0  0  0  0  0  0  0  0  0
    8.2430    1.0100   23.9670 C   0  0  0  0  0  0  0  0  0  0  0  0
    8.2220    0.4650   25.4030 C   0  0  2  0  0  0  0  0  0  0  0  0
    9.3610   -0.5360   25.6770 C   0  0  0  0  0  0  0  0  0  0  0  0
   10.6270   -0.0100   25.4670 F   0  0  0  0  0  0  0  0  0  0  0  0
    9.3120   -0.8690   26.7180 H   0  0  0  0  0  0  0  0  0  0  0  0
    9.2630   -1.4090   25.0160 H   0  0  0  0  0  0  0  0  0  0  0  0
    6.8310   -0.2260   25.5160 C   0  0  0  0  0  0  0  0  0  0  0  0
    5.7010    0.7580   25.9100 C   0  0  0  0  0  0  0  0  0  0  0  0
    4.5480   -0.0970   26.4940 C   0  0  0  0  0  0  0  0  0  0  0  0
    5.1780   -1.4640   26.8680 C   0  0  0  0  0  0  0  0  0  0  0  0
    6.6860   -1.3100   26.5970 C   0  0  0  0  0  0  0  0  0  0  0  0
    7.1620   -2.2500   26.2960 H   0  0  0  0  0  0  0  0  0  0  0  0
    7.1970   -0.9790   27.5100 H   0  0  0  0  0  0  0  0  0  0  0  0
    4.7520   -2.2660   26.2540 H   0  0  0  0  0  0  0  0  0  0  0  0
    4.9850   -1.7480   27.9080 H   0  0  0  0  0  0  0  0  0  0  0  0
    3.7420   -0.2280   25.7640 H   0  0  0  0  0  0  0  0  0  0  0  0
    4.0900    0.3990   27.3560 H   0  0  0  0  0  0  0  0  0  0  0  0
    5.3840    1.3770   25.0630 H   0  0  0  0  0  0  0  0  0  0  0  0
    6.0870    1.4440   26.6730 H   0  0  0  0  0  0  0  0  0  0  0  0
    6.5990   -0.7800   24.0870 C   0  0  0  0  0  0  0  0  0  0  0  0
    5.5320   -0.7760   23.8290 H   0  0  0  0  0  0  0  0  0  0  0  0
    6.9510   -1.8190   23.9990 H   0  0  0  0  0  0  0  0  0  0  0  0
    8.2880    1.2870   26.1250 H   0  0  0  0  0  0  0  0  0  0  0  0
    7.8700    2.0440   23.9070 H   0  0  0  0  0  0  0  0  0  0  0  0
    9.2550    1.0100   23.5550 H   0  0  0  0  0  0  0  0  0  0  0  0
  1  2  2  0  0  0  0
  2  3  1  0  0  0  0
  2 22  1  0  0  0  0
  3  4  1  0  0  0  0
  3 20  1  0  0  0  0
  3 21  1  0  0  0  0
  4  5  2  0  0  0  0
  4 13  1  0  0  0  0
  5  6  1  0  0  0  0
  5 19  1  0  0  0  0
  6  7  2  0  0  0  0
  7  8  1  0  0  0  0
  7 18  1  0  0  0  0
  8  9  2  0  0  0  0
  8 13  1  0  0  0  0
  9 10  1  0  0  0  0
  9 17  1  0  0  0  0
 10 11  2  0  0  0  0
 10 16  1  0  0  0  0
 11 12  1  0  0  0  0
 11 15  1  0  0  0  0
 12 13  2  0  0  0  0
 12 14  1  0  0  0  0
 22 23  1  0  0  0  0
 22 42  1  0  0  0  0
 23 24  1  0  0  0  0
 23 46  1  0  0  0  0
 23 47  1  0  0  0  0
 24 25  1  0  0  0  0
 24 29  1  0  0  0  0
 24 45  1  1  0  0  0
 25 26  1  0  0  0  0
 25 27  1  0  0  0  0
 25 28  1  0  0  0  0
 29 30  1  0  0  0  0
 29 33  1  0  0  0  0
 29 42  1  0  0  0  0
 30 31  1  0  0  0  0
 30 40  1  0  0  0  0
 30 41  1  0  0  0  0
 31 32  1  0  0  0  0
 31 38  1  0  0  0  0
 31 39  1  0  0  0  0
 32 33  1  0  0  0  0
 32 36  1  0  0  0  0
 32 37  1  0  0  0  0
 33 34  1  0  0  0  0
 33 35  1  0  0  0  0
 42 43  1  0  0  0  0
 42 44  1  0  0  0  0
M  END
>  <MODEL>
       7

$$$$
best_conformers_12.pdb
 OpenBabel02042510453D

 47 50  0  0  1  0  0  0  0  0999 V2000
    8.1030    0.9030   21.2320 O   0  0  0  0  0  0  0  0  0  0  0  0
    7.3700    0.1430   21.8440 C   0  0  0  0  0  0  0  0  0  0  0  0
    6.4590   -0.8280   21.0530 C   0  0  0  0  0  0  0  0  0  0  0  0
    5.8080   -0.1730   19.8520 C   0  0  0  0  0  0  0  0  0  0  0  0
    6.2370   -0.4360   18.5760 C   0  0  0  0  0  0  0  0  0  0  0  0
    5.7560    0.1380   17.4360 N   0  0  0  0  0  0  0  0  0  0  0  0
    4.7860    1.0110   17.5810 C   0  0  0  0  0  0  0  0  0  0  0  0
    4.2280    1.3790   18.8360 C   0  0  0  0  0  0  0  0  0  0  0  0
    3.1780    2.3290   18.9410 C   0  0  0  0  0  0  0  0  0  0  0  0
    2.6570    2.6590   20.1630 C   0  0  0  0  0  0  0  0  0  0  0  0
    3.1680    2.0520   21.3330 C   0  0  0  0  0  0  0  0  0  0  0  0
    4.1860    1.1340   21.2610 C   0  0  0  0  0  0  0  0  0  0  0  0
    4.7480    0.7730   20.0070 C   0  0  0  0  0  0  0  0  0  0  0  0
    4.5660    0.6820   22.1730 H   0  0  0  0  0  0  0  0  0  0  0  0
    2.7510    2.3220   22.2980 H   0  0  0  0  0  0  0  0  0  0  0  0
    1.8550    3.3890   20.2440 H   0  0  0  0  0  0  0  0  0  0  0  0
    2.8000    2.7930   18.0320 H   0  0  0  0  0  0  0  0  0  0  0  0
    4.3970    1.4880   16.6780 H   0  0  0  0  0  0  0  0  0  0  0  0
    7.0270   -1.1700   18.4060 H   0  0  0  0  0  0  0  0  0  0  0  0
    5.7120   -1.3150   21.6870 H   0  0  0  0  0  0  0  0  0  0  0  0
    7.1150   -1.6290   20.6880 H   0  0  0  0  0  0  0  0  0  0  0  0
    7.3520    0.1220   23.2120 N   0  0  0  0  0  0  0  0  0  0  0  0
    8.2240    1.0210   23.9780 C   0  0  0  0  0  0  0  0  0  0  0  0
    8.1920    0.4920   25.4200 C   0  0  2  0  0  0  0  0  0  0  0  0
    9.3460   -0.4820   25.7190 C   0  0  0  0  0  0  0  0  0  0  0  0
   10.6120    0.0480   25.5180 F   0  0  0  0  0  0  0  0  0  0  0  0
    9.3140   -1.3340   25.0410 H   0  0  0  0  0  0  0  0  0  0  0  0
    9.3120   -0.8370   26.7540 H   0  0  0  0  0  0  0  0  0  0  0  0
    6.8150   -0.2130   25.5200 C   0  0  0  0  0  0  0  0  0  0  0  0
    6.6690   -1.3010   26.5990 C   0  0  0  0  0  0  0  0  0  0  0  0
    5.1640   -1.4540   26.8670 C   0  0  0  0  0  0  0  0  0  0  0  0
    4.5330   -0.0990   26.4880 C   0  0  0  0  0  0  0  0  0  0  0  0
    5.6760    0.7590   25.9090 C   0  0  0  0  0  0  0  0  0  0  0  0
    6.0380    1.4590   26.6690 H   0  0  0  0  0  0  0  0  0  0  0  0
    5.3500    1.3640   25.0580 H   0  0  0  0  0  0  0  0  0  0  0  0
    3.7370   -0.2370   25.7520 H   0  0  0  0  0  0  0  0  0  0  0  0
    4.0790    0.3950   27.3520 H   0  0  0  0  0  0  0  0  0  0  0  0
    4.7430   -2.2560   26.2530 H   0  0  0  0  0  0  0  0  0  0  0  0
    4.9700   -1.7230   27.9100 H   0  0  0  0  0  0  0  0  0  0  0  0
    7.1720   -0.9850   27.5210 H   0  0  0  0  0  0  0  0  0  0  0  0
    7.1310   -2.2470   26.3020 H   0  0  0  0  0  0  0  0  0  0  0  0
    6.5980   -0.7650   24.0890 C   0  0  0  0  0  0  0  0  0  0  0  0
    5.5360   -0.7700   23.8320 H   0  0  0  0  0  0  0  0  0  0  0  0
    6.9560   -1.7990   24.0030 H   0  0  0  0  0  0  0  0  0  0  0  0
    8.2470    1.3130   26.1420 H   0  0  0  0  0  0  0  0  0  0  0  0
    9.2420    1.0190   23.5900 H   0  0  0  0  0  0  0  0  0  0  0  0
    7.8520    2.0510   23.9310 H   0  0  0  0  0  0  0  0  0  0  0  0
  1  2  2  0  0  0  0
  2  3  1  0  0  0  0
  2 22  1  0  0  0  0
  3  4  1  0  0  0  0
  3 20  1  0  0  0  0
  3 21  1  0  0  0  0
  4  5  2  0  0  0  0
  4 13  1  0  0  0  0
  5  6  1  0  0  0  0
  5 19  1  0  0  0  0
  6  7  2  0  0  0  0
  7  8  1  0  0  0  0
  7 18  1  0  0  0  0
  8  9  2  0  0  0  0
  8 13  1  0  0  0  0
  9 10  1  0  0  0  0
  9 17  1  0  0  0  0
 10 11  2  0  0  0  0
 10 16  1  0  0  0  0
 11 12  1  0  0  0  0
 11 15  1  0  0  0  0
 12 13  2  0  0  0  0
 12 14  1  0  0  0  0
 22 23  1  0  0  0  0
 22 42  1  0  0  0  0
 23 24  1  0  0  0  0
 23 46  1  0  0  0  0
 23 47  1  0  0  0  0
 24 25  1  0  0  0  0
 24 29  1  0  0  0  0
 24 45  1  1  0  0  0
 25 26  1  0  0  0  0
 25 27  1  0  0  0  0
 25 28  1  0  0  0  0
 29 30  1  0  0  0  0
 29 33  1  0  0  0  0
 29 42  1  0  0  0  0
 30 31  1  0  0  0  0
 30 40  1  0  0  0  0
 30 41  1  0  0  0  0
 31 32  1  0  0  0  0
 31 38  1  0  0  0  0
 31 39  1  0  0  0  0
 32 33  1  0  0  0  0
 32 36  1  0  0  0  0
 32 37  1  0  0  0  0
 33 34  1  0  0  0  0
 33 35  1  0  0  0  0
 42 43  1  0  0  0  0
 42 44  1  0  0  0  0
M  END
>  <MODEL>
       8

$$$$
best_conformers_12.pdb
 OpenBabel02042510453D

 47 50  0  0  1  0  0  0  0  0999 V2000
    7.9490    0.7170   21.1070 O   0  0  0  0  0  0  0  0  0  0  0  0
    7.2450   -0.1030   21.6790 C   0  0  0  0  0  0  0  0  0  0  0  0
    6.3460   -1.0440   20.8680 C   0  0  0  0  0  0  0  0  0  0  0  0
    5.7580   -0.2780   19.7140 C   0  0  0  0  0  0  0  0  0  0  0  0
    6.2550   -0.4360   18.4480 C   0  0  0  0  0  0  0  0  0  0  0  0
    5.7940    0.1880   17.3310 N   0  0  0  0  0  0  0  0  0  0  0  0
    4.7990    1.0290   17.5030 C   0  0  0  0  0  0  0  0  0  0  0  0
    4.2310    1.3440   18.7660 C   0  0  0  0  0  0  0  0  0  0  0  0
    3.1920    2.3020   18.8880 C   0  0  0  0  0  0  0  0  0  0  0  0
    2.6850    2.6280   20.1150 C   0  0  0  0  0  0  0  0  0  0  0  0
    3.1990    2.0110   21.2770 C   0  0  0  0  0  0  0  0  0  0  0  0
    4.1970    1.0700   21.1860 C   0  0  0  0  0  0  0  0  0  0  0  0
    4.7340    0.6970   19.9200 C   0  0  0  0  0  0  0  0  0  0  0  0
    4.5820    0.6240   22.1000 H   0  0  0  0  0  0  0  0  0  0  0  0
    2.7930    2.2820   22.2480 H   0  0  0  0  0  0  0  0  0  0  0  0
    1.8920    3.3670   20.2050 H   0  0  0  0  0  0  0  0  0  0  0  0
    2.8230    2.7790   17.9830 H   0  0  0  0  0  0  0  0  0  0  0  0
    4.3930    1.5170   16.6150 H   0  0  0  0  0  0  0  0  0  0  0  0
    7.0950   -1.1100   18.2670 H   0  0  0  0  0  0  0  0  0  0  0  0
    5.5610   -1.5080   21.4790 H   0  0  0  0  0  0  0  0  0  0  0  0
    6.9760   -1.8530   20.4750 H   0  0  0  0  0  0  0  0  0  0  0  0
    7.1980   -0.1700   23.0360 N   0  0  0  0  0  0  0  0  0  0  0  0
    7.7440    0.9420   23.8000 C   0  0  0  0  0  0  0  0  0  0  0  0
    7.0820    0.7840   25.1650 C   0  0  2  0  0  0  0  0  0  0  0  0
    7.8260    1.5120   26.2500 C   0  0  0  0  0  0  0  0  0  0  0  0
    7.7300    2.8820   26.0400 F   0  0  0  0  0  0  0  0  0  0  0  0
    8.8640    1.2060   26.1540 H   0  0  0  0  0  0  0  0  0  0  0  0
    7.4650    1.2920   27.2610 H   0  0  0  0  0  0  0  0  0  0  0  0
    6.8870   -0.7430   25.3200 C   0  0  0  0  0  0  0  0  0  0  0  0
    5.9130   -1.1080   26.4450 C   0  0  0  0  0  0  0  0  0  0  0  0
    6.1390   -2.5910   26.7880 C   0  0  0  0  0  0  0  0  0  0  0  0
    7.5620   -2.9090   26.2730 C   0  0  0  0  0  0  0  0  0  0  0  0
    8.1220   -1.5790   25.7240 C   0  0  0  0  0  0  0  0  0  0  0  0
    8.6550   -1.0590   26.5270 H   0  0  0  0  0  0  0  0  0  0  0  0
    8.8260   -1.7280   24.8970 H   0  0  0  0  0  0  0  0  0  0  0  0
    8.2060   -3.2980   27.0670 H   0  0  0  0  0  0  0  0  0  0  0  0
    7.5330   -3.6870   25.5020 H   0  0  0  0  0  0  0  0  0  0  0  0
    5.3900   -3.2420   26.3230 H   0  0  0  0  0  0  0  0  0  0  0  0
    6.0570   -2.7470   27.8690 H   0  0  0  0  0  0  0  0  0  0  0  0
    4.8720   -0.8430   26.2200 H   0  0  0  0  0  0  0  0  0  0  0  0
    6.2200   -0.5160   27.3170 H   0  0  0  0  0  0  0  0  0  0  0  0
    6.4650   -1.1180   23.8750 C   0  0  0  0  0  0  0  0  0  0  0  0
    5.3840   -0.9980   23.7230 H   0  0  0  0  0  0  0  0  0  0  0  0
    6.7130   -2.1510   23.6090 H   0  0  0  0  0  0  0  0  0  0  0  0
    6.0860    1.2360   25.1170 H   0  0  0  0  0  0  0  0  0  0  0  0
    8.8350    0.8670   23.8510 H   0  0  0  0  0  0  0  0  0  0  0  0
    7.5280    1.9030   23.3220 H   0  0  0  0  0  0  0  0  0  0  0  0
  1  2  2  0  0  0  0
  2  3  1  0  0  0  0
  2 22  1  0  0  0  0
  3  4  1  0  0  0  0
  3 20  1  0  0  0  0
  3 21  1  0  0  0  0
  4  5  2  0  0  0  0
  4 13  1  0  0  0  0
  5  6  1  0  0  0  0
  5 19  1  0  0  0  0
  6  7  2  0  0  0  0
  7  8  1  0  0  0  0
  7 18  1  0  0  0  0
  8  9  2  0  0  0  0
  8 13  1  0  0  0  0
  9 10  1  0  0  0  0
  9 17  1  0  0  0  0
 10 11  2  0  0  0  0
 10 16  1  0  0  0  0
 11 12  1  0  0  0  0
 11 15  1  0  0  0  0
 12 13  2  0  0  0  0
 12 14  1  0  0  0  0
 22 23  1  0  0  0  0
 22 42  1  0  0  0  0
 23 24  1  0  0  0  0
 23 46  1  0  0  0  0
 23 47  1  0  0  0  0
 24 25  1  0  0  0  0
 24 29  1  0  0  0  0
 24 45  1  6  0  0  0
 25 26  1  0  0  0  0
 25 27  1  0  0  0  0
 25 28  1  0  0  0  0
 29 30  1  0  0  0  0
 29 33  1  0  0  0  0
 29 42  1  0  0  0  0
 30 31  1  0  0  0  0
 30 40  1  0  0  0  0
 30 41  1  0  0  0  0
 31 32  1  0  0  0  0
 31 38  1  0  0  0  0
 31 39  1  0  0  0  0
 32 33  1  0  0  0  0
 32 36  1  0  0  0  0
 32 37  1  0  0  0  0
 33 34  1  0  0  0  0
 33 35  1  0  0  0  0
 42 43  1  0  0  0  0
 42 44  1  0  0  0  0
M  END
>  <MODEL>
       9

$$$$
best_conformers_12.pdb
 OpenBabel02042510453D

 47 50  0  0  1  0  0  0  0  0999 V2000
    8.4700   -1.5750   20.5610 O   0  0  0  0  0  0  0  0  0  0  0  0
    7.6310   -0.8530   21.0780 C   0  0  0  0  0  0  0  0  0  0  0  0
    6.1340   -1.0950   20.9360 C   0  0  0  0  0  0  0  0  0  0  0  0
    5.6100   -0.2700   19.7890 C   0  0  0  0  0  0  0  0  0  0  0  0
    6.2030   -0.4290   18.5600 C   0  0  0  0  0  0  0  0  0  0  0  0
    5.8110    0.1820   17.4160 N   0  0  0  0  0  0  0  0  0  0  0  0
    4.8080    1.0260   17.5090 C   0  0  0  0  0  0  0  0  0  0  0  0
    4.1440    1.3470   18.7310 C   0  0  0  0  0  0  0  0  0  0  0  0
    3.1240    2.3340   18.8080 C   0  0  0  0  0  0  0  0  0  0  0  0
    2.5860    2.6900   20.0140 C   0  0  0  0  0  0  0  0  0  0  0  0
    3.0220    2.0620   21.2010 C   0  0  0  0  0  0  0  0  0  0  0  0
    3.9770    1.0740   21.1490 C   0  0  0  0  0  0  0  0  0  0  0  0
    4.5680    0.6930   19.9130 C   0  0  0  0  0  0  0  0  0  0  0  0
    4.3190    0.6300   22.0810 H   0  0  0  0  0  0  0  0  0  0  0  0
    2.6200    2.3810   22.1580 H   0  0  0  0  0  0  0  0  0  0  0  0
    1.8310    3.4690   20.0750 H   0  0  0  0  0  0  0  0  0  0  0  0
    2.8080    2.8350   17.8960 H   0  0  0  0  0  0  0  0  0  0  0  0
    4.4910    1.5240   16.5910 H   0  0  0  0  0  0  0  0  0  0  0  0
    7.0620   -1.0950   18.4790 H   0  0  0  0  0  0  0  0  0  0  0  0
    6.0270   -2.1630   20.7230 H   0  0  0  0  0  0  0  0  0  0  0  0
    5.6130   -0.8820   21.8750 H   0  0  0  0  0  0  0  0  0  0  0  0
    7.9940    0.2530   21.7770 N   0  0  0  0  0  0  0  0  0  0  0  0
    9.3970    0.4350   22.0610 C   0  0  0  0  0  0  0  0  0  0  0  0
    9.5310    1.8690   22.5860 C   0  0  2  0  0  0  0  0  0  0  0  0
   10.2050    1.7830   23.9300 C   0  0  0  0  0  0  0  0  0  0  0  0
    9.3880    0.9720   24.7310 F   0  0  0  0  0  0  0  0  0  0  0  0
   11.2000    1.3290   23.8790 H   0  0  0  0  0  0  0  0  0  0  0  0
   10.3310    2.7540   24.4130 H   0  0  0  0  0  0  0  0  0  0  0  0
    8.0880    2.4520   22.6660 C   0  0  0  0  0  0  0  0  0  0  0  0
    7.7500    3.2590   23.9340 C   0  0  0  0  0  0  0  0  0  0  0  0
    8.4760    4.6070   23.7470 C   0  0  0  0  0  0  0  0  0  0  0  0
    8.6840    4.7490   22.2270 C   0  0  0  0  0  0  0  0  0  0  0  0
    7.9040    3.5700   21.6240 C   0  0  0  0  0  0  0  0  0  0  0  0
    6.8400    3.8450   21.5910 H   0  0  0  0  0  0  0  0  0  0  0  0
    8.2020    3.2510   20.6200 H   0  0  0  0  0  0  0  0  0  0  0  0
    9.7520    4.6770   21.9960 H   0  0  0  0  0  0  0  0  0  0  0  0
    8.3590    5.7070   21.8210 H   0  0  0  0  0  0  0  0  0  0  0  0
    7.9200    5.4400   24.1850 H   0  0  0  0  0  0  0  0  0  0  0  0
    9.4510    4.5840   24.2310 H   0  0  0  0  0  0  0  0  0  0  0  0
    8.0110    2.7360   24.8570 H   0  0  0  0  0  0  0  0  0  0  0  0
    6.6620    3.4200   23.9320 H   0  0  0  0  0  0  0  0  0  0  0  0
    7.1690    1.2410   22.4620 C   0  0  0  0  0  0  0  0  0  0  0  0
    6.2980    1.5060   21.8660 H   0  0  0  0  0  0  0  0  0  0  0  0
    6.7950    0.8460   23.4200 H   0  0  0  0  0  0  0  0  0  0  0  0
   10.1650    2.4800   21.9370 H   0  0  0  0  0  0  0  0  0  0  0  0
    9.9690    0.2000   21.1650 H   0  0  0  0  0  0  0  0  0  0  0  0
    9.7170   -0.2810   22.8250 H   0  0  0  0  0  0  0  0  0  0  0  0
  1  2  2  0  0  0  0
  2  3  1  0  0  0  0
  2 22  1  0  0  0  0
  3  4  1  0  0  0  0
  3 20  1  0  0  0  0
  3 21  1  0  0  0  0
  4  5  2  0  0  0  0
  4 13  1  0  0  0  0
  5  6  1  0  0  0  0
  5 19  1  0  0  0  0
  6  7  2  0  0  0  0
  7  8  1  0  0  0  0
  7 18  1  0  0  0  0
  8  9  2  0  0  0  0
  8 13  1  0  0  0  0
  9 10  1  0  0  0  0
  9 17  1  0  0  0  0
 10 11  2  0  0  0  0
 10 16  1  0  0  0  0
 11 12  1  0  0  0  0
 11 15  1  0  0  0  0
 12 13  2  0  0  0  0
 12 14  1  0  0  0  0
 22 23  1  0  0  0  0
 22 42  1  0  0  0  0
 23 24  1  0  0  0  0
 23 46  1  0  0  0  0
 23 47  1  0  0  0  0
 24 25  1  0  0  0  0
 24 29  1  0  0  0  0
 24 45  1  6  0  0  0
 25 26  1  0  0  0  0
 25 27  1  0  0  0  0
 25 28  1  0  0  0  0
 29 30  1  0  0  0  0
 29 33  1  0  0  0  0
 29 42  1  0  0  0  0
 30 31  1  0  0  0  0
 30 40  1  0  0  0  0
 30 41  1  0  0  0  0
 31 32  1  0  0  0  0
 31 38  1  0  0  0  0
 31 39  1  0  0  0  0
 32 33  1  0  0  0  0
 32 36  1  0  0  0  0
 32 37  1  0  0  0  0
 33 34  1  0  0  0  0
 33 35  1  0  0  0  0
 42 43  1  0  0  0  0
 42 44  1  0  0  0  0
M  END
>  <MODEL>
      10

$$$$
best_conformers_12.pdb
 OpenBabel02042510453D

 47 50  0  0  1  0  0  0  0  0999 V2000
    8.0870    0.8700   21.2150 O   0  0  0  0  0  0  0  0  0  0  0  0
    7.2940    0.1250   21.7710 C   0  0  0  0  0  0  0  0  0  0  0  0
    6.4510   -0.8760   20.9870 C   0  0  0  0  0  0  0  0  0  0  0  0
    5.8050   -0.1970   19.8200 C   0  0  0  0  0  0  0  0  0  0  0  0
    6.2820   -0.4250   18.5590 C   0  0  0  0  0  0  0  0  0  0  0  0
    5.8030    0.1430   17.4220 N   0  0  0  0  0  0  0  0  0  0  0  0
    4.8150    0.9910   17.5720 C   0  0  0  0  0  0  0  0  0  0  0  0
    4.2390    1.3530   18.8230 C   0  0  0  0  0  0  0  0  0  0  0  0
    3.1940    2.3080   18.9220 C   0  0  0  0  0  0  0  0  0  0  0  0
    2.6680    2.6430   20.1390 C   0  0  0  0  0  0  0  0  0  0  0  0
    3.1640    2.0360   21.3140 C   0  0  0  0  0  0  0  0  0  0  0  0
    4.1760    1.1130   21.2490 C   0  0  0  0  0  0  0  0  0  0  0  0
    4.7470    0.7450   19.9950 C   0  0  0  0  0  0  0  0  0  0  0  0
    4.5440    0.6710   22.1720 H   0  0  0  0  0  0  0  0  0  0  0  0
    2.7380    2.3190   22.2750 H   0  0  0  0  0  0  0  0  0  0  0  0
    1.8750    3.3830   20.2100 H   0  0  0  0  0  0  0  0  0  0  0  0
    2.8270    2.7750   18.0110 H   0  0  0  0  0  0  0  0  0  0  0  0
    4.4210    1.4540   16.6660 H   0  0  0  0  0  0  0  0  0  0  0  0
    7.1070   -1.1260   18.4360 H   0  0  0  0  0  0  0  0  0  0  0  0
    5.6910   -1.3340   21.6250 H   0  0  0  0  0  0  0  0  0  0  0  0
    7.1190   -1.6790   20.6440 H   0  0  0  0  0  0  0  0  0  0  0  0
    7.0780    0.1530   23.1120 N   0  0  0  0  0  0  0  0  0  0  0  0
    6.3830   -0.8370   23.9420 C   0  0  0  0  0  0  0  0  0  0  0  0
    6.8140   -0.4240   25.3500 C   0  0  2  0  0  0  0  0  0  0  0  0
    5.9760   -0.9290   26.5000 C   0  0  0  0  0  0  0  0  0  0  0  0
    4.6510   -0.5260   26.3440 F   0  0  0  0  0  0  0  0  0  0  0  0
    6.3530   -0.5330   27.4510 H   0  0  0  0  0  0  0  0  0  0  0  0
    5.9850   -2.0230   26.5870 H   0  0  0  0  0  0  0  0  0  0  0  0
    7.0390    1.1130   25.2710 C   0  0  0  0  0  0  0  0  0  0  0  0
    5.8230    2.0370   25.4790 C   0  0  0  0  0  0  0  0  0  0  0  0
    5.7110    2.2680   27.0020 C   0  0  0  0  0  0  0  0  0  0  0  0
    7.1240    1.9800   27.5740 C   0  0  0  0  0  0  0  0  0  0  0  0
    7.9830    1.5840   26.3630 C   0  0  0  0  0  0  0  0  0  0  0  0
    8.6940    0.7670   26.5450 H   0  0  0  0  0  0  0  0  0  0  0  0
    8.5050    2.4770   25.9960 H   0  0  0  0  0  0  0  0  0  0  0  0
    7.0920    1.1720   28.3150 H   0  0  0  0  0  0  0  0  0  0  0  0
    7.5530    2.8530   28.0710 H   0  0  0  0  0  0  0  0  0  0  0  0
    4.9860    1.5850   27.4520 H   0  0  0  0  0  0  0  0  0  0  0  0
    5.3790    3.2950   27.2020 H   0  0  0  0  0  0  0  0  0  0  0  0
    4.9050    1.6480   25.0290 H   0  0  0  0  0  0  0  0  0  0  0  0
    6.0570    3.0100   25.0160 H   0  0  0  0  0  0  0  0  0  0  0  0
    7.6810    1.2190   23.8910 C   0  0  0  0  0  0  0  0  0  0  0  0
    8.7650    1.0630   23.9630 H   0  0  0  0  0  0  0  0  0  0  0  0
    7.5140    2.1780   23.3960 H   0  0  0  0  0  0  0  0  0  0  0  0
    7.8190   -0.8660   25.4650 H   0  0  0  0  0  0  0  0  0  0  0  0
    5.2910   -0.7910   23.8160 H   0  0  0  0  0  0  0  0  0  0  0  0
    6.7210   -1.8570   23.7040 H   0  0  0  0  0  0  0  0  0  0  0  0
  1  2  2  0  0  0  0
  2  3  1  0  0  0  0
  2 22  1  0  0  0  0
  3  4  1  0  0  0  0
  3 20  1  0  0  0  0
  3 21  1  0  0  0  0
  4  5  2  0  0  0  0
  4 13  1  0  0  0  0
  5  6  1  0  0  0  0
  5 19  1  0  0  0  0
  6  7  2  0  0  0  0
  7  8  1  0  0  0  0
  7 18  1  0  0  0  0
  8  9  2  0  0  0  0
  8 13  1  0  0  0  0
  9 10  1  0  0  0  0
  9 17  1  0  0  0  0
 10 11  2  0  0  0  0
 10 16  1  0  0  0  0
 11 12  1  0  0  0  0
 11 15  1  0  0  0  0
 12 13  2  0  0  0  0
 12 14  1  0  0  0  0
 22 23  1  0  0  0  0
 22 42  1  0  0  0  0
 23 24  1  0  0  0  0
 23 46  1  0  0  0  0
 23 47  1  0  0  0  0
 24 25  1  0  0  0  0
 24 29  1  0  0  0  0
 24 45  1  1  0  0  0
 25 26  1  0  0  0  0
 25 27  1  0  0  0  0
 25 28  1  0  0  0  0
 29 30  1  0  0  0  0
 29 33  1  0  0  0  0
 29 42  1  0  0  0  0
 30 31  1  0  0  0  0
 30 40  1  0  0  0  0
 30 41  1  0  0  0  0
 31 32  1  0  0  0  0
 31 38  1  0  0  0  0
 31 39  1  0  0  0  0
 32 33  1  0  0  0  0
 32 36  1  0  0  0  0
 32 37  1  0  0  0  0
 33 34  1  0  0  0  0
 33 35  1  0  0  0  0
 42 43  1  0  0  0  0
 42 44  1  0  0  0  0
M  END
>  <MODEL>
      11

$$$$
