best_conformers_21.pdb
 OpenBabel02042510453D

 59 64  0  0  1  0  0  0  0  0999 V2000
    6.7800   -3.6290   23.3270 C   0  0  0  0  0  0  0  0  0  0  0  0
    7.2490   -2.4790   22.4250 C   0  0  1  0  0  0  0  0  0  0  0  0
    6.2870   -2.2050   21.2590 C   0  0  0  0  0  0  0  0  0  0  0  0
    6.4570   -0.7890   20.9750 N   0  0  0  0  0  0  0  0  0  0  0  0
    5.8480   -0.1510   19.8630 C   0  0  0  0  0  0  0  0  0  0  0  0
    6.2570   -0.4560   18.5900 C   0  0  0  0  0  0  0  0  0  0  0  0
    5.7670    0.1170   17.4630 N   0  0  0  0  0  0  0  0  0  0  0  0
    4.8050    0.9980   17.6070 C   0  0  0  0  0  0  0  0  0  0  0  0
    4.2390    1.3670   18.8580 C   0  0  0  0  0  0  0  0  0  0  0  0
    3.1770    2.3110   18.9540 C   0  0  0  0  0  0  0  0  0  0  0  0
    2.6290    2.6230   20.1670 C   0  0  0  0  0  0  0  0  0  0  0  0
    3.1130    1.9970   21.3410 C   0  0  0  0  0  0  0  0  0  0  0  0
    4.1400    1.0910   21.2720 C   0  0  0  0  0  0  0  0  0  0  0  0
    4.7550    0.7660   20.0300 C   0  0  0  0  0  0  0  0  0  0  0  0
    4.5010    0.6210   22.1820 H   0  0  0  0  0  0  0  0  0  0  0  0
    2.6750    2.2510   22.3030 H   0  0  0  0  0  0  0  0  0  0  0  0
    1.8240    3.3520   20.2400 H   0  0  0  0  0  0  0  0  0  0  0  0
    2.8170    2.7790   18.0400 H   0  0  0  0  0  0  0  0  0  0  0  0
    4.4190    1.4610   16.7000 H   0  0  0  0  0  0  0  0  0  0  0  0
    7.0410   -1.1950   18.4280 H   0  0  0  0  0  0  0  0  0  0  0  0
    7.1000   -0.0940   21.9740 C   0  0  0  0  0  0  0  0  0  0  0  0
    7.2910    1.1070   21.9670 O   0  0  0  0  0  0  0  0  0  0  0  0
    7.4680   -1.0780   23.0970 C   0  0  1  0  0  0  0  0  0  0  0  0
    6.5150   -0.7970   24.2740 C   0  0  0  0  0  0  0  0  0  0  0  0
    6.9000   -1.5360   25.4590 N   0  0  0  0  0  0  0  0  0  0  0  0
    5.8670   -1.9270   26.4150 C   0  0  0  0  0  0  0  0  0  0  0  0
    5.3940   -0.8190   27.3230 C   0  0  0  0  0  0  0  0  0  0  0  0
    4.4320    0.1830   27.0600 C   0  0  0  0  0  0  0  0  0  0  0  0
    4.3310    1.0450   28.0630 N   0  0  0  0  0  0  0  0  0  0  0  0
    5.2020    0.6130   28.9780 N   0  0  0  0  0  0  0  0  0  0  0  0
    5.3500    1.2880   30.2480 C   0  0  0  0  0  0  0  0  0  0  0  0
    4.7590    0.7840   31.0220 H   0  0  0  0  0  0  0  0  0  0  0  0
    5.0050    2.3190   30.1240 H   0  0  0  0  0  0  0  0  0  0  0  0
    6.4090    1.2660   30.5190 H   0  0  0  0  0  0  0  0  0  0  0  0
    5.8470   -0.5090   28.5850 C   0  0  0  0  0  0  0  0  0  0  0  0
    6.5860   -0.9840   29.2200 H   0  0  0  0  0  0  0  0  0  0  0  0
    3.7950    0.3260   26.1890 H   0  0  0  0  0  0  0  0  0  0  0  0
    6.2830   -2.7470   27.0080 H   0  0  0  0  0  0  0  0  0  0  0  0
    5.0210   -2.3240   25.8400 H   0  0  0  0  0  0  0  0  0  0  0  0
    8.1930   -1.5360   25.8980 C   0  0  0  0  0  0  0  0  0  0  0  0
    8.4820   -1.9180   27.0190 O   0  0  0  0  0  0  0  0  0  0  0  0
    9.2310   -1.0920   24.9200 C   0  0  0  0  0  0  0  0  0  0  0  0
   10.5590   -0.9930   25.3430 C   0  0  0  0  0  0  0  0  0  0  0  0
   11.5660   -0.7040   24.4390 C   0  0  0  0  0  0  0  0  0  0  0  0
   11.2130   -0.5330   23.1060 C   0  0  0  0  0  0  0  0  0  0  0  0
   12.1810   -0.2600   22.2180 F   0  0  0  0  0  0  0  0  0  0  0  0
    9.9110   -0.6320   22.6600 C   0  0  0  0  0  0  0  0  0  0  0  0
    8.8920   -0.8920   23.5790 C   0  0  0  0  0  0  0  0  0  0  0  0
    9.7000   -0.4930   21.6050 H   0  0  0  0  0  0  0  0  0  0  0  0
   12.6110   -0.6220   24.7240 H   0  0  0  0  0  0  0  0  0  0  0  0
   10.7870   -1.1780   26.3870 H   0  0  0  0  0  0  0  0  0  0  0  0
    5.4920   -1.0930   24.0080 H   0  0  0  0  0  0  0  0  0  0  0  0
    6.5400    0.2880   24.4580 H   0  0  0  0  0  0  0  0  0  0  0  0
    5.2450   -2.4430   21.5290 H   0  0  0  0  0  0  0  0  0  0  0  0
    6.5260   -2.7920   20.3730 H   0  0  0  0  0  0  0  0  0  0  0  0
    8.2330   -2.7470   22.0150 H   0  0  0  0  0  0  0  0  0  0  0  0
    7.4590   -3.7730   24.1740 H   0  0  0  0  0  0  0  0  0  0  0  0
    5.7830   -3.4290   23.7410 H   0  0  0  0  0  0  0  0  0  0  0  0
    6.7220   -4.5710   22.7680 H   0  0  0  0  0  0  0  0  0  0  0  0
  1  2  1  0  0  0  0
  1 57  1  0  0  0  0
  1 58  1  0  0  0  0
  1 59  1  0  0  0  0
  2  3  1  0  0  0  0
  2 23  1  0  0  0  0
  2 56  1  6  0  0  0
  3  4  1  0  0  0  0
  3 54  1  0  0  0  0
  3 55  1  0  0  0  0
  4  5  1  0  0  0  0
  4 21  1  0  0  0  0
  5  6  2  0  0  0  0
  5 14  1  0  0  0  0
  6  7  1  0  0  0  0
  6 20  1  0  0  0  0
  7  8  2  0  0  0  0
  8  9  1  0  0  0  0
  8 19  1  0  0  0  0
  9 10  2  0  0  0  0
  9 14  1  0  0  0  0
 10 11  1  0  0  0  0
 10 18  1  0  0  0  0
 11 12  2  0  0  0  0
 11 17  1  0  0  0  0
 12 13  1  0  0  0  0
 12 16  1  0  0  0  0
 13 14  2  0  0  0  0
 13 15  1  0  0  0  0
 21 22  2  0  0  0  0
 23 21  1  6  0  0  0
 23 24  1  0  0  0  0
 23 48  1  0  0  0  0
 24 25  1  0  0  0  0
 24 52  1  0  0  0  0
 24 53  1  0  0  0  0
 25 26  1  0  0  0  0
 25 40  1  0  0  0  0
 26 27  1  0  0  0  0
 26 38  1  0  0  0  0
 26 39  1  0  0  0  0
 27 28  1  0  0  0  0
 27 35  2  0  0  0  0
 28 29  2  0  0  0  0
 28 37  1  0  0  0  0
 29 30  1  0  0  0  0
 30 31  1  0  0  0  0
 30 35  1  0  0  0  0
 31 32  1  0  0  0  0
 31 33  1  0  0  0  0
 31 34  1  0  0  0  0
 35 36  1  0  0  0  0
 40 41  2  0  0  0  0
 40 42  1  0  0  0  0
 42 43  2  0  0  0  0
 42 48  1  0  0  0  0
 43 44  1  0  0  0  0
 43 51  1  0  0  0  0
 44 45  2  0  0  0  0
 44 50  1  0  0  0  0
 45 46  1  0  0  0  0
 45 47  1  0  0  0  0
 47 48  2  0  0  0  0
 47 49  1  0  0  0  0
M  END
>  <MODEL>
       1

$$$$
best_conformers_21.pdb
 OpenBabel02042510453D

 59 64  0  0  1  0  0  0  0  0999 V2000
    6.7580   -3.6250   23.3360 C   0  0  0  0  0  0  0  0  0  0  0  0
    7.2350   -2.4770   22.4340 C   0  0  1  0  0  0  0  0  0  0  0  0
    6.2800   -2.2040   21.2610 C   0  0  0  0  0  0  0  0  0  0  0  0
    6.4560   -0.7900   20.9740 N   0  0  0  0  0  0  0  0  0  0  0  0
    5.8480   -0.1510   19.8630 C   0  0  0  0  0  0  0  0  0  0  0  0
    6.2570   -0.4560   18.5900 C   0  0  0  0  0  0  0  0  0  0  0  0
    5.7670    0.1170   17.4630 N   0  0  0  0  0  0  0  0  0  0  0  0
    4.8050    0.9980   17.6080 C   0  0  0  0  0  0  0  0  0  0  0  0
    4.2390    1.3670   18.8580 C   0  0  0  0  0  0  0  0  0  0  0  0
    3.1780    2.3110   18.9530 C   0  0  0  0  0  0  0  0  0  0  0  0
    2.6290    2.6240   20.1660 C   0  0  0  0  0  0  0  0  0  0  0  0
    3.1130    1.9970   21.3410 C   0  0  0  0  0  0  0  0  0  0  0  0
    4.1400    1.0910   21.2720 C   0  0  0  0  0  0  0  0  0  0  0  0
    4.7550    0.7660   20.0290 C   0  0  0  0  0  0  0  0  0  0  0  0
    4.5000    0.6210   22.1820 H   0  0  0  0  0  0  0  0  0  0  0  0
    2.6740    2.2510   22.3020 H   0  0  0  0  0  0  0  0  0  0  0  0
    1.8240    3.3520   20.2400 H   0  0  0  0  0  0  0  0  0  0  0  0
    2.8170    2.7790   18.0390 H   0  0  0  0  0  0  0  0  0  0  0  0
    4.4200    1.4600   16.7000 H   0  0  0  0  0  0  0  0  0  0  0  0
    7.0410   -1.1950   18.4280 H   0  0  0  0  0  0  0  0  0  0  0  0
    7.0960   -0.0930   21.9760 C   0  0  0  0  0  0  0  0  0  0  0  0
    7.2920    1.1070   21.9650 O   0  0  0  0  0  0  0  0  0  0  0  0
    7.4510   -1.0730   23.1030 C   0  0  1  0  0  0  0  0  0  0  0  0
    6.4870   -0.7870   24.2720 C   0  0  0  0  0  0  0  0  0  0  0  0
    6.8640   -1.5280   25.4590 N   0  0  0  0  0  0  0  0  0  0  0  0
    5.8210   -1.9050   26.4100 C   0  0  0  0  0  0  0  0  0  0  0  0
    5.3100   -0.7730   27.2700 C   0  0  0  0  0  0  0  0  0  0  0  0
    5.7120   -0.3810   28.5670 C   0  0  0  0  0  0  0  0  0  0  0  0
    5.0900    0.7220   28.9660 N   0  0  0  0  0  0  0  0  0  0  0  0
    4.2800    1.0450   27.9560 N   0  0  0  0  0  0  0  0  0  0  0  0
    3.4010    2.1910   28.0330 C   0  0  0  0  0  0  0  0  0  0  0  0
    3.8160    2.8810   28.7720 H   0  0  0  0  0  0  0  0  0  0  0  0
    3.3670    2.6610   27.0450 H   0  0  0  0  0  0  0  0  0  0  0  0
    2.3900    1.8860   28.3300 H   0  0  0  0  0  0  0  0  0  0  0  0
    4.3650    0.1690   26.9290 C   0  0  0  0  0  0  0  0  0  0  0  0
    3.7500    0.3100   26.0480 H   0  0  0  0  0  0  0  0  0  0  0  0
    6.4400   -0.8540   29.2220 H   0  0  0  0  0  0  0  0  0  0  0  0
    6.2410   -2.7010   27.0340 H   0  0  0  0  0  0  0  0  0  0  0  0
    4.9930   -2.3340   25.8310 H   0  0  0  0  0  0  0  0  0  0  0  0
    8.1550   -1.5290   25.9070 C   0  0  0  0  0  0  0  0  0  0  0  0
    8.4370   -1.9130   27.0280 O   0  0  0  0  0  0  0  0  0  0  0  0
    9.2010   -1.0870   24.9380 C   0  0  0  0  0  0  0  0  0  0  0  0
   10.5250   -0.9900   25.3720 C   0  0  0  0  0  0  0  0  0  0  0  0
   11.5420   -0.7090   24.4780 C   0  0  0  0  0  0  0  0  0  0  0  0
   11.2000   -0.5430   23.1410 C   0  0  0  0  0  0  0  0  0  0  0  0
   12.1760   -0.2770   22.2590 F   0  0  0  0  0  0  0  0  0  0  0  0
    9.9010   -0.6400   22.6830 C   0  0  0  0  0  0  0  0  0  0  0  0
    8.8720   -0.8910   23.5940 C   0  0  0  0  0  0  0  0  0  0  0  0
    9.7000   -0.5050   21.6260 H   0  0  0  0  0  0  0  0  0  0  0  0
   12.5850   -0.6290   24.7700 H   0  0  0  0  0  0  0  0  0  0  0  0
   10.7430   -1.1710   26.4190 H   0  0  0  0  0  0  0  0  0  0  0  0
    6.5140    0.2970   24.4560 H   0  0  0  0  0  0  0  0  0  0  0  0
    5.4650   -1.0820   23.9990 H   0  0  0  0  0  0  0  0  0  0  0  0
    5.2370   -2.4380   21.5270 H   0  0  0  0  0  0  0  0  0  0  0  0
    6.5230   -2.7950   20.3790 H   0  0  0  0  0  0  0  0  0  0  0  0
    8.2210   -2.7470   22.0320 H   0  0  0  0  0  0  0  0  0  0  0  0
    7.4310   -3.7670   24.1880 H   0  0  0  0  0  0  0  0  0  0  0  0
    6.7030   -4.5690   22.7790 H   0  0  0  0  0  0  0  0  0  0  0  0
    5.7590   -3.4230   23.7420 H   0  0  0  0  0  0  0  0  0  0  0  0
  1  2  1  0  0  0  0
  1 57  1  0  0  0  0
  1 58  1  0  0  0  0
  1 59  1  0  0  0  0
  2  3  1  0  0  0  0
  2 23  1  0  0  0  0
  2 56  1  6  0  0  0
  3  4  1  0  0  0  0
  3 54  1  0  0  0  0
  3 55  1  0  0  0  0
  4  5  1  0  0  0  0
  4 21  1  0  0  0  0
  5  6  2  0  0  0  0
  5 14  1  0  0  0  0
  6  7  1  0  0  0  0
  6 20  1  0  0  0  0
  7  8  2  0  0  0  0
  8  9  1  0  0  0  0
  8 19  1  0  0  0  0
  9 10  2  0  0  0  0
  9 14  1  0  0  0  0
 10 11  1  0  0  0  0
 10 18  1  0  0  0  0
 11 12  2  0  0  0  0
 11 17  1  0  0  0  0
 12 13  1  0  0  0  0
 12 16  1  0  0  0  0
 13 14  2  0  0  0  0
 13 15  1  0  0  0  0
 21 22  2  0  0  0  0
 23 21  1  6  0  0  0
 23 24  1  0  0  0  0
 23 48  1  0  0  0  0
 24 25  1  0  0  0  0
 24 52  1  0  0  0  0
 24 53  1  0  0  0  0
 25 26  1  0  0  0  0
 25 40  1  0  0  0  0
 26 27  1  0  0  0  0
 26 38  1  0  0  0  0
 26 39  1  0  0  0  0
 27 28  1  0  0  0  0
 27 35  2  0  0  0  0
 28 29  2  0  0  0  0
 28 37  1  0  0  0  0
 29 30  1  0  0  0  0
 30 31  1  0  0  0  0
 30 35  1  0  0  0  0
 31 32  1  0  0  0  0
 31 33  1  0  0  0  0
 31 34  1  0  0  0  0
 35 36  1  0  0  0  0
 40 41  2  0  0  0  0
 40 42  1  0  0  0  0
 42 43  2  0  0  0  0
 42 48  1  0  0  0  0
 43 44  1  0  0  0  0
 43 51  1  0  0  0  0
 44 45  2  0  0  0  0
 44 50  1  0  0  0  0
 45 46  1  0  0  0  0
 45 47  1  0  0  0  0
 47 48  2  0  0  0  0
 47 49  1  0  0  0  0
M  END
>  <MODEL>
       2

$$$$
best_conformers_21.pdb
 OpenBabel02042510453D

 59 64  0  0  1  0  0  0  0  0999 V2000
    6.7860   -3.6190   23.3270 C   0  0  0  0  0  0  0  0  0  0  0  0
    7.2540   -2.4760   22.4240 C   0  0  1  0  0  0  0  0  0  0  0  0
    6.2890   -2.2050   21.2560 C   0  0  0  0  0  0  0  0  0  0  0  0
    6.4560   -0.7890   20.9770 N   0  0  0  0  0  0  0  0  0  0  0  0
    5.8490   -0.1510   19.8640 C   0  0  0  0  0  0  0  0  0  0  0  0
    6.2590   -0.4570   18.5920 C   0  0  0  0  0  0  0  0  0  0  0  0
    5.7700    0.1150   17.4640 N   0  0  0  0  0  0  0  0  0  0  0  0
    4.8080    0.9960   17.6100 C   0  0  0  0  0  0  0  0  0  0  0  0
    4.2400    1.3660   18.8600 C   0  0  0  0  0  0  0  0  0  0  0  0
    3.1780    2.3090   18.9550 C   0  0  0  0  0  0  0  0  0  0  0  0
    2.6290    2.6230   20.1670 C   0  0  0  0  0  0  0  0  0  0  0  0
    3.1130    1.9970   21.3420 C   0  0  0  0  0  0  0  0  0  0  0  0
    4.1400    1.0920   21.2730 C   0  0  0  0  0  0  0  0  0  0  0  0
    4.7560    0.7660   20.0320 C   0  0  0  0  0  0  0  0  0  0  0  0
    4.5000    0.6240   22.1840 H   0  0  0  0  0  0  0  0  0  0  0  0
    2.6740    2.2510   22.3030 H   0  0  0  0  0  0  0  0  0  0  0  0
    1.8240    3.3520   20.2380 H   0  0  0  0  0  0  0  0  0  0  0  0
    2.8200    2.7770   18.0390 H   0  0  0  0  0  0  0  0  0  0  0  0
    4.4220    1.4570   16.7010 H   0  0  0  0  0  0  0  0  0  0  0  0
    7.0430   -1.1960   18.4300 H   0  0  0  0  0  0  0  0  0  0  0  0
    7.1050   -0.0940   21.9730 C   0  0  0  0  0  0  0  0  0  0  0  0
    7.2910    1.1070   21.9650 O   0  0  0  0  0  0  0  0  0  0  0  0
    7.4860   -1.0750   23.0990 C   0  0  1  0  0  0  0  0  0  0  0  0
    6.5550   -0.7450   24.2890 C   0  0  0  0  0  0  0  0  0  0  0  0
    6.9800   -1.3330   25.5490 N   0  0  0  0  0  0  0  0  0  0  0  0
    5.9570   -1.6670   26.5400 C   0  0  0  0  0  0  0  0  0  0  0  0
    5.5220   -3.1140   26.5690 C   0  0  0  0  0  0  0  0  0  0  0  0
    6.2290   -4.2000   27.1250 C   0  0  0  0  0  0  0  0  0  0  0  0
    5.5740   -5.3410   26.9580 N   0  0  0  0  0  0  0  0  0  0  0  0
    4.4660   -5.0260   26.2990 N   0  0  0  0  0  0  0  0  0  0  0  0
    3.6170   -6.0860   25.7980 C   0  0  0  0  0  0  0  0  0  0  0  0
    3.8090   -6.9610   26.4250 H   0  0  0  0  0  0  0  0  0  0  0  0
    3.8490   -6.3370   24.7520 H   0  0  0  0  0  0  0  0  0  0  0  0
    2.5800   -5.7550   25.8880 H   0  0  0  0  0  0  0  0  0  0  0  0
    4.3720   -3.6930   26.0620 C   0  0  0  0  0  0  0  0  0  0  0  0
    3.5050   -3.2860   25.5450 H   0  0  0  0  0  0  0  0  0  0  0  0
    7.2100   -4.2190   27.5920 H   0  0  0  0  0  0  0  0  0  0  0  0
    5.0830   -1.0450   26.3230 H   0  0  0  0  0  0  0  0  0  0  0  0
    6.3560   -1.3730   27.5180 H   0  0  0  0  0  0  0  0  0  0  0  0
    8.2880   -1.5210   25.8930 C   0  0  0  0  0  0  0  0  0  0  0  0
    8.6110   -2.0260   26.9550 O   0  0  0  0  0  0  0  0  0  0  0  0
    9.2980   -1.1170   24.8730 C   0  0  0  0  0  0  0  0  0  0  0  0
   10.6380   -1.0580   25.2570 C   0  0  0  0  0  0  0  0  0  0  0  0
   11.6200   -0.7680   24.3300 C   0  0  0  0  0  0  0  0  0  0  0  0
   11.2350   -0.5660   23.0100 C   0  0  0  0  0  0  0  0  0  0  0  0
   12.1820   -0.2890   22.1010 F   0  0  0  0  0  0  0  0  0  0  0  0
    9.9200   -0.6420   22.5980 C   0  0  0  0  0  0  0  0  0  0  0  0
    8.9230   -0.9010   23.5440 C   0  0  0  0  0  0  0  0  0  0  0  0
    9.6820   -0.4810   21.5520 H   0  0  0  0  0  0  0  0  0  0  0  0
   12.6710   -0.7050   24.5890 H   0  0  0  0  0  0  0  0  0  0  0  0
   10.8760   -1.2660   26.2950 H   0  0  0  0  0  0  0  0  0  0  0  0
    5.5480   -1.1300   24.0780 H   0  0  0  0  0  0  0  0  0  0  0  0
    6.5210    0.3540   24.3610 H   0  0  0  0  0  0  0  0  0  0  0  0
    6.5230   -2.7870   20.3650 H   0  0  0  0  0  0  0  0  0  0  0  0
    5.2480   -2.4390   21.5310 H   0  0  0  0  0  0  0  0  0  0  0  0
    8.2350   -2.7450   22.0030 H   0  0  0  0  0  0  0  0  0  0  0  0
    6.7600   -4.5670   22.7740 H   0  0  0  0  0  0  0  0  0  0  0  0
    5.7750   -3.4310   23.7090 H   0  0  0  0  0  0  0  0  0  0  0  0
    7.4510   -3.7430   24.1890 H   0  0  0  0  0  0  0  0  0  0  0  0
  1  2  1  0  0  0  0
  1 57  1  0  0  0  0
  1 58  1  0  0  0  0
  1 59  1  0  0  0  0
  2  3  1  0  0  0  0
  2 23  1  0  0  0  0
  2 56  1  6  0  0  0
  3  4  1  0  0  0  0
  3 54  1  0  0  0  0
  3 55  1  0  0  0  0
  4  5  1  0  0  0  0
  4 21  1  0  0  0  0
  5  6  2  0  0  0  0
  5 14  1  0  0  0  0
  6  7  1  0  0  0  0
  6 20  1  0  0  0  0
  7  8  2  0  0  0  0
  8  9  1  0  0  0  0
  8 19  1  0  0  0  0
  9 10  2  0  0  0  0
  9 14  1  0  0  0  0
 10 11  1  0  0  0  0
 10 18  1  0  0  0  0
 11 12  2  0  0  0  0
 11 17  1  0  0  0  0
 12 13  1  0  0  0  0
 12 16  1  0  0  0  0
 13 14  2  0  0  0  0
 13 15  1  0  0  0  0
 21 22  2  0  0  0  0
 23 21  1  6  0  0  0
 23 24  1  0  0  0  0
 23 48  1  0  0  0  0
 24 25  1  0  0  0  0
 24 52  1  0  0  0  0
 24 53  1  0  0  0  0
 25 26  1  0  0  0  0
 25 40  1  0  0  0  0
 26 27  1  0  0  0  0
 26 38  1  0  0  0  0
 26 39  1  0  0  0  0
 27 28  1  0  0  0  0
 27 35  2  0  0  0  0
 28 29  2  0  0  0  0
 28 37  1  0  0  0  0
 29 30  1  0  0  0  0
 30 31  1  0  0  0  0
 30 35  1  0  0  0  0
 31 32  1  0  0  0  0
 31 33  1  0  0  0  0
 31 34  1  0  0  0  0
 35 36  1  0  0  0  0
 40 41  2  0  0  0  0
 40 42  1  0  0  0  0
 42 43  2  0  0  0  0
 42 48  1  0  0  0  0
 43 44  1  0  0  0  0
 43 51  1  0  0  0  0
 44 45  2  0  0  0  0
 44 50  1  0  0  0  0
 45 46  1  0  0  0  0
 45 47  1  0  0  0  0
 47 48  2  0  0  0  0
 47 49  1  0  0  0  0
M  END
>  <MODEL>
       3

$$$$
best_conformers_21.pdb
 OpenBabel02042510453D

 59 64  0  0  1  0  0  0  0  0999 V2000
    6.1720   -2.8880   23.4300 C   0  0  0  0  0  0  0  0  0  0  0  0
    7.2640   -2.4120   22.4730 C   0  0  1  0  0  0  0  0  0  0  0  0
    6.7260   -2.1580   21.0540 C   0  0  0  0  0  0  0  0  0  0  0  0
    6.4140   -0.7420   21.0350 N   0  0  0  0  0  0  0  0  0  0  0  0
    5.8220   -0.1350   19.8940 C   0  0  0  0  0  0  0  0  0  0  0  0
    6.2620   -0.4370   18.6270 C   0  0  0  0  0  0  0  0  0  0  0  0
    5.7950    0.1220   17.4830 N   0  0  0  0  0  0  0  0  0  0  0  0
    4.8260    0.9980   17.6000 C   0  0  0  0  0  0  0  0  0  0  0  0
    4.2430    1.3740   18.8420 C   0  0  0  0  0  0  0  0  0  0  0  0
    3.1870    2.3200   18.8970 C   0  0  0  0  0  0  0  0  0  0  0  0
    2.6160    2.6450   20.0960 C   0  0  0  0  0  0  0  0  0  0  0  0
    3.0740    2.0420   21.2890 C   0  0  0  0  0  0  0  0  0  0  0  0
    4.1090    1.1370   21.2650 C   0  0  0  0  0  0  0  0  0  0  0  0
    4.7320    0.7890   20.0320 C   0  0  0  0  0  0  0  0  0  0  0  0
    4.4550    0.6800   22.1870 H   0  0  0  0  0  0  0  0  0  0  0  0
    2.6020    2.3040   22.2330 H   0  0  0  0  0  0  0  0  0  0  0  0
    1.8060    3.3700   20.1400 H   0  0  0  0  0  0  0  0  0  0  0  0
    2.8490    2.7760   17.9700 H   0  0  0  0  0  0  0  0  0  0  0  0
    4.4450    1.4520   16.6860 H   0  0  0  0  0  0  0  0  0  0  0  0
    7.0600   -1.1640   18.4840 H   0  0  0  0  0  0  0  0  0  0  0  0
    7.3670   -0.0720   21.7960 C   0  0  0  0  0  0  0  0  0  0  0  0
    7.6290    1.1050   21.6860 O   0  0  0  0  0  0  0  0  0  0  0  0
    7.9690   -1.0490   22.8340 C   0  0  1  0  0  0  0  0  0  0  0  0
    7.6170   -0.4370   24.2030 C   0  0  0  0  0  0  0  0  0  0  0  0
    8.2780   -1.1030   25.3000 N   0  0  0  0  0  0  0  0  0  0  0  0
    7.6220   -1.1210   26.6010 C   0  0  0  0  0  0  0  0  0  0  0  0
    6.8990   -2.3900   26.9700 C   0  0  0  0  0  0  0  0  0  0  0  0
    7.4960   -3.5900   27.4120 C   0  0  0  0  0  0  0  0  0  0  0  0
    6.5940   -4.5380   27.6270 N   0  0  0  0  0  0  0  0  0  0  0  0
    5.4190   -3.9700   27.3540 N   0  0  0  0  0  0  0  0  0  0  0  0
    4.2070   -4.7570   27.3620 C   0  0  0  0  0  0  0  0  0  0  0  0
    4.3760   -5.6360   27.9860 H   0  0  0  0  0  0  0  0  0  0  0  0
    3.9400   -5.0840   26.3500 H   0  0  0  0  0  0  0  0  0  0  0  0
    3.3920   -4.1590   27.7740 H   0  0  0  0  0  0  0  0  0  0  0  0
    5.5510   -2.6730   26.9710 C   0  0  0  0  0  0  0  0  0  0  0  0
    4.6870   -2.0540   26.7410 H   0  0  0  0  0  0  0  0  0  0  0  0
    8.5430   -3.8020   27.6090 H   0  0  0  0  0  0  0  0  0  0  0  0
    6.9770   -0.2420   26.7020 H   0  0  0  0  0  0  0  0  0  0  0  0
    8.4510   -1.0040   27.2820 H   0  0  0  0  0  0  0  0  0  0  0  0
    9.6100   -1.4280   25.2700 C   0  0  0  0  0  0  0  0  0  0  0  0
   10.2360   -1.7330   26.2780 O   0  0  0  0  0  0  0  0  0  0  0  0
   10.2440   -1.4010   23.9270 C   0  0  0  0  0  0  0  0  0  0  0  0
   11.6180   -1.6470   23.8760 C   0  0  0  0  0  0  0  0  0  0  0  0
   12.2930   -1.6450   22.6700 C   0  0  0  0  0  0  0  0  0  0  0  0
   11.5370   -1.4690   21.5180 C   0  0  0  0  0  0  0  0  0  0  0  0
   12.2080   -1.5480   20.3560 F   0  0  0  0  0  0  0  0  0  0  0  0
   10.1620   -1.2660   21.5380 C   0  0  0  0  0  0  0  0  0  0  0  0
    9.4900   -1.1880   22.7660 C   0  0  0  0  0  0  0  0  0  0  0  0
    9.6130   -1.1800   20.6070 H   0  0  0  0  0  0  0  0  0  0  0  0
   13.3590   -1.8430   22.5810 H   0  0  0  0  0  0  0  0  0  0  0  0
   12.1170   -1.8610   24.8130 H   0  0  0  0  0  0  0  0  0  0  0  0
    7.8660    0.6310   24.1700 H   0  0  0  0  0  0  0  0  0  0  0  0
    6.5430   -0.5070   24.3680 H   0  0  0  0  0  0  0  0  0  0  0  0
    5.8560   -2.7670   20.7890 H   0  0  0  0  0  0  0  0  0  0  0  0
    7.5430   -2.3310   20.3510 H   0  0  0  0  0  0  0  0  0  0  0  0
    8.0270   -3.2010   22.4460 H   0  0  0  0  0  0  0  0  0  0  0  0
    6.5880   -3.0450   24.4320 H   0  0  0  0  0  0  0  0  0  0  0  0
    5.3490   -2.1670   23.4950 H   0  0  0  0  0  0  0  0  0  0  0  0
    5.7600   -3.8440   23.0810 H   0  0  0  0  0  0  0  0  0  0  0  0
  1  2  1  0  0  0  0
  1 57  1  0  0  0  0
  1 58  1  0  0  0  0
  1 59  1  0  0  0  0
  2  3  1  0  0  0  0
  2 23  1  0  0  0  0
  2 56  1  6  0  0  0
  3  4  1  0  0  0  0
  3 54  1  0  0  0  0
  3 55  1  0  0  0  0
  4  5  1  0  0  0  0
  4 21  1  0  0  0  0
  5  6  2  0  0  0  0
  5 14  1  0  0  0  0
  6  7  1  0  0  0  0
  6 20  1  0  0  0  0
  7  8  2  0  0  0  0
  8  9  1  0  0  0  0
  8 19  1  0  0  0  0
  9 10  2  0  0  0  0
  9 14  1  0  0  0  0
 10 11  1  0  0  0  0
 10 18  1  0  0  0  0
 11 12  2  0  0  0  0
 11 17  1  0  0  0  0
 12 13  1  0  0  0  0
 12 16  1  0  0  0  0
 13 14  2  0  0  0  0
 13 15  1  0  0  0  0
 21 22  2  0  0  0  0
 23 21  1  6  0  0  0
 23 24  1  0  0  0  0
 23 48  1  0  0  0  0
 24 25  1  0  0  0  0
 24 52  1  0  0  0  0
 24 53  1  0  0  0  0
 25 26  1  0  0  0  0
 25 40  1  0  0  0  0
 26 27  1  0  0  0  0
 26 38  1  0  0  0  0
 26 39  1  0  0  0  0
 27 28  1  0  0  0  0
 27 35  2  0  0  0  0
 28 29  2  0  0  0  0
 28 37  1  0  0  0  0
 29 30  1  0  0  0  0
 30 31  1  0  0  0  0
 30 35  1  0  0  0  0
 31 32  1  0  0  0  0
 31 33  1  0  0  0  0
 31 34  1  0  0  0  0
 35 36  1  0  0  0  0
 40 41  2  0  0  0  0
 40 42  1  0  0  0  0
 42 43  2  0  0  0  0
 42 48  1  0  0  0  0
 43 44  1  0  0  0  0
 43 51  1  0  0  0  0
 44 45  2  0  0  0  0
 44 50  1  0  0  0  0
 45 46  1  0  0  0  0
 45 47  1  0  0  0  0
 47 48  2  0  0  0  0
 47 49  1  0  0  0  0
M  END
>  <MODEL>
       4

$$$$
