best_conformers_56.pdb
 OpenBabel02042510453D

 41 43  0  0  1  0  0  0  0  0999 V2000
    7.7210    1.1620   21.3780 O   0  0  0  0  0  0  0  0  0  0  0  0
    7.3920    0.0950   21.8580 C   0  0  0  0  0  0  0  0  0  0  0  0
    6.4680   -0.8480   21.0500 C   0  0  0  0  0  0  0  0  0  0  0  0
    5.8140   -0.1740   19.8580 C   0  0  0  0  0  0  0  0  0  0  0  0
    6.2350   -0.4370   18.5760 C   0  0  0  0  0  0  0  0  0  0  0  0
    5.7540    0.1360   17.4390 N   0  0  0  0  0  0  0  0  0  0  0  0
    4.7850    1.0120   17.5810 C   0  0  0  0  0  0  0  0  0  0  0  0
    4.2310    1.3800   18.8390 C   0  0  0  0  0  0  0  0  0  0  0  0
    3.1800    2.3290   18.9410 C   0  0  0  0  0  0  0  0  0  0  0  0
    2.6590    2.6590   20.1650 C   0  0  0  0  0  0  0  0  0  0  0  0
    3.1720    2.0540   21.3330 C   0  0  0  0  0  0  0  0  0  0  0  0
    4.1930    1.1350   21.2630 C   0  0  0  0  0  0  0  0  0  0  0  0
    4.7550    0.7750   20.0090 C   0  0  0  0  0  0  0  0  0  0  0  0
    4.5770    0.6830   22.1750 H   0  0  0  0  0  0  0  0  0  0  0  0
    2.7580    2.3260   22.2980 H   0  0  0  0  0  0  0  0  0  0  0  0
    1.8570    3.3890   20.2450 H   0  0  0  0  0  0  0  0  0  0  0  0
    2.7980    2.7930   18.0330 H   0  0  0  0  0  0  0  0  0  0  0  0
    4.3960    1.4890   16.6790 H   0  0  0  0  0  0  0  0  0  0  0  0
    7.0230   -1.1690   18.4060 H   0  0  0  0  0  0  0  0  0  0  0  0
    5.7060   -1.2820   21.7060 H   0  0  0  0  0  0  0  0  0  0  0  0
    7.0870   -1.6810   20.6880 H   0  0  0  0  0  0  0  0  0  0  0  0
    7.8450   -0.2690   23.1250 N   0  0  0  0  0  0  0  0  0  0  0  0
    8.7390    0.6860   23.8040 C   0  0  0  0  0  0  0  0  0  0  0  0
   10.1840    0.6680   23.3050 C   0  0  0  0  0  0  0  0  0  0  0  0
   10.9870   -0.5290   23.7970 C   0  0  0  0  0  0  0  0  0  0  0  0
   10.3510   -2.1450   23.2810 S   0  0  0  0  0  0  0  0  0  0  0  0
    8.8930   -2.2130   24.3480 C   0  0  0  0  0  0  0  0  0  0  0  0
    7.6430   -1.5800   23.7170 C   0  0  1  0  0  0  0  0  0  0  0  0
    6.5050   -1.5090   24.7330 C   0  0  0  0  0  0  0  0  0  0  0  0
    6.8360   -0.7740   25.8130 F   0  0  0  0  0  0  0  0  0  0  0  0
    6.1680   -2.7320   25.1810 F   0  0  0  0  0  0  0  0  0  0  0  0
    5.4110   -0.9550   24.1840 F   0  0  0  0  0  0  0  0  0  0  0  0
    7.3050   -2.2730   22.9430 H   0  0  0  0  0  0  0  0  0  0  0  0
    9.1460   -1.7520   25.3040 H   0  0  0  0  0  0  0  0  0  0  0  0
    8.7030   -3.2700   24.5590 H   0  0  0  0  0  0  0  0  0  0  0  0
   12.0190   -0.4710   23.4350 H   0  0  0  0  0  0  0  0  0  0  0  0
   11.0370   -0.5380   24.8910 H   0  0  0  0  0  0  0  0  0  0  0  0
   10.6990    1.5830   23.6360 H   0  0  0  0  0  0  0  0  0  0  0  0
   10.1770    0.6820   22.2140 H   0  0  0  0  0  0  0  0  0  0  0  0
    8.7150    0.4910   24.8760 H   0  0  0  0  0  0  0  0  0  0  0  0
    8.3190    1.6830   23.6650 H   0  0  0  0  0  0  0  0  0  0  0  0
  1  2  2  0  0  0  0
  2  3  1  0  0  0  0
  2 22  1  0  0  0  0
  3  4  1  0  0  0  0
  3 20  1  0  0  0  0
  3 21  1  0  0  0  0
  4  5  2  0  0  0  0
  4 13  1  0  0  0  0
  5  6  1  0  0  0  0
  5 19  1  0  0  0  0
  6  7  2  0  0  0  0
  7  8  1  0  0  0  0
  7 18  1  0  0  0  0
  8  9  2  0  0  0  0
  8 13  1  0  0  0  0
  9 10  1  0  0  0  0
  9 17  1  0  0  0  0
 10 11  2  0  0  0  0
 10 16  1  0  0  0  0
 11 12  1  0  0  0  0
 11 15  1  0  0  0  0
 12 13  2  0  0  0  0
 12 14  1  0  0  0  0
 22 23  1  0  0  0  0
 22 28  1  0  0  0  0
 23 24  1  0  0  0  0
 23 40  1  0  0  0  0
 23 41  1  0  0  0  0
 24 25  1  0  0  0  0
 24 38  1  0  0  0  0
 24 39  1  0  0  0  0
 25 26  1  0  0  0  0
 25 36  1  0  0  0  0
 25 37  1  0  0  0  0
 26 27  1  0  0  0  0
 27 28  1  0  0  0  0
 27 34  1  0  0  0  0
 27 35  1  0  0  0  0
 28 29  1  0  0  0  0
 28 33  1  6  0  0  0
 29 30  1  0  0  0  0
 29 31  1  0  0  0  0
 29 32  1  0  0  0  0
M  END
>  <MODEL>
       1

$$$$
best_conformers_56.pdb
 OpenBabel02042510453D

 41 43  0  0  1  0  0  0  0  0999 V2000
    7.7210    1.1620   21.3780 O   0  0  0  0  0  0  0  0  0  0  0  0
    7.3920    0.0950   21.8580 C   0  0  0  0  0  0  0  0  0  0  0  0
    6.4680   -0.8480   21.0500 C   0  0  0  0  0  0  0  0  0  0  0  0
    5.8140   -0.1740   19.8580 C   0  0  0  0  0  0  0  0  0  0  0  0
    6.2350   -0.4370   18.5760 C   0  0  0  0  0  0  0  0  0  0  0  0
    5.7540    0.1360   17.4390 N   0  0  0  0  0  0  0  0  0  0  0  0
    4.7850    1.0120   17.5810 C   0  0  0  0  0  0  0  0  0  0  0  0
    4.2310    1.3800   18.8390 C   0  0  0  0  0  0  0  0  0  0  0  0
    3.1800    2.3290   18.9410 C   0  0  0  0  0  0  0  0  0  0  0  0
    2.6590    2.6590   20.1650 C   0  0  0  0  0  0  0  0  0  0  0  0
    3.1720    2.0540   21.3330 C   0  0  0  0  0  0  0  0  0  0  0  0
    4.1930    1.1350   21.2630 C   0  0  0  0  0  0  0  0  0  0  0  0
    4.7550    0.7750   20.0090 C   0  0  0  0  0  0  0  0  0  0  0  0
    4.5770    0.6830   22.1750 H   0  0  0  0  0  0  0  0  0  0  0  0
    2.7580    2.3260   22.2980 H   0  0  0  0  0  0  0  0  0  0  0  0
    1.8570    3.3890   20.2450 H   0  0  0  0  0  0  0  0  0  0  0  0
    2.7980    2.7930   18.0330 H   0  0  0  0  0  0  0  0  0  0  0  0
    4.3960    1.4890   16.6790 H   0  0  0  0  0  0  0  0  0  0  0  0
    7.0230   -1.1690   18.4060 H   0  0  0  0  0  0  0  0  0  0  0  0
    5.7060   -1.2820   21.7060 H   0  0  0  0  0  0  0  0  0  0  0  0
    7.0870   -1.6810   20.6880 H   0  0  0  0  0  0  0  0  0  0  0  0
    7.8440   -0.2690   23.1250 N   0  0  0  0  0  0  0  0  0  0  0  0
    8.7390    0.6860   23.8040 C   0  0  0  0  0  0  0  0  0  0  0  0
   10.1840    0.6680   23.3050 C   0  0  0  0  0  0  0  0  0  0  0  0
   10.9870   -0.5280   23.7970 C   0  0  0  0  0  0  0  0  0  0  0  0
   10.3510   -2.1450   23.2810 S   0  0  0  0  0  0  0  0  0  0  0  0
    8.8920   -2.2130   24.3480 C   0  0  0  0  0  0  0  0  0  0  0  0
    7.6430   -1.5800   23.7170 C   0  0  1  0  0  0  0  0  0  0  0  0
    6.5050   -1.5090   24.7330 C   0  0  0  0  0  0  0  0  0  0  0  0
    6.8360   -0.7740   25.8130 F   0  0  0  0  0  0  0  0  0  0  0  0
    5.4110   -0.9560   24.1840 F   0  0  0  0  0  0  0  0  0  0  0  0
    6.1680   -2.7320   25.1810 F   0  0  0  0  0  0  0  0  0  0  0  0
    7.3050   -2.2730   22.9430 H   0  0  0  0  0  0  0  0  0  0  0  0
    9.1460   -1.7520   25.3050 H   0  0  0  0  0  0  0  0  0  0  0  0
    8.7030   -3.2700   24.5590 H   0  0  0  0  0  0  0  0  0  0  0  0
   11.0360   -0.5380   24.8910 H   0  0  0  0  0  0  0  0  0  0  0  0
   12.0190   -0.4710   23.4350 H   0  0  0  0  0  0  0  0  0  0  0  0
   10.1770    0.6820   22.2140 H   0  0  0  0  0  0  0  0  0  0  0  0
   10.6990    1.5830   23.6360 H   0  0  0  0  0  0  0  0  0  0  0  0
    8.3190    1.6830   23.6650 H   0  0  0  0  0  0  0  0  0  0  0  0
    8.7150    0.4910   24.8760 H   0  0  0  0  0  0  0  0  0  0  0  0
  1  2  2  0  0  0  0
  2  3  1  0  0  0  0
  2 22  1  0  0  0  0
  3  4  1  0  0  0  0
  3 20  1  0  0  0  0
  3 21  1  0  0  0  0
  4  5  2  0  0  0  0
  4 13  1  0  0  0  0
  5  6  1  0  0  0  0
  5 19  1  0  0  0  0
  6  7  2  0  0  0  0
  7  8  1  0  0  0  0
  7 18  1  0  0  0  0
  8  9  2  0  0  0  0
  8 13  1  0  0  0  0
  9 10  1  0  0  0  0
  9 17  1  0  0  0  0
 10 11  2  0  0  0  0
 10 16  1  0  0  0  0
 11 12  1  0  0  0  0
 11 15  1  0  0  0  0
 12 13  2  0  0  0  0
 12 14  1  0  0  0  0
 22 23  1  0  0  0  0
 22 28  1  0  0  0  0
 23 24  1  0  0  0  0
 23 40  1  0  0  0  0
 23 41  1  0  0  0  0
 24 25  1  0  0  0  0
 24 38  1  0  0  0  0
 24 39  1  0  0  0  0
 25 26  1  0  0  0  0
 25 36  1  0  0  0  0
 25 37  1  0  0  0  0
 26 27  1  0  0  0  0
 27 28  1  0  0  0  0
 27 34  1  0  0  0  0
 27 35  1  0  0  0  0
 28 29  1  0  0  0  0
 28 33  1  6  0  0  0
 29 30  1  0  0  0  0
 29 31  1  0  0  0  0
 29 32  1  0  0  0  0
M  END
>  <MODEL>
       2

$$$$
best_conformers_56.pdb
 OpenBabel02042510453D

 41 43  0  0  1  0  0  0  0  0999 V2000
    8.0800    0.9810   21.0900 O   0  0  0  0  0  0  0  0  0  0  0  0
    7.5060    0.1320   21.7390 C   0  0  0  0  0  0  0  0  0  0  0  0
    6.4960   -0.8100   21.0470 C   0  0  0  0  0  0  0  0  0  0  0  0
    5.8100   -0.1740   19.8530 C   0  0  0  0  0  0  0  0  0  0  0  0
    6.2350   -0.4370   18.5720 C   0  0  0  0  0  0  0  0  0  0  0  0
    5.7540    0.1360   17.4350 N   0  0  0  0  0  0  0  0  0  0  0  0
    4.7850    1.0110   17.5800 C   0  0  0  0  0  0  0  0  0  0  0  0
    4.2290    1.3800   18.8360 C   0  0  0  0  0  0  0  0  0  0  0  0
    3.1810    2.3320   18.9400 C   0  0  0  0  0  0  0  0  0  0  0  0
    2.6610    2.6620   20.1640 C   0  0  0  0  0  0  0  0  0  0  0  0
    3.1710    2.0530   21.3320 C   0  0  0  0  0  0  0  0  0  0  0  0
    4.1910    1.1320   21.2620 C   0  0  0  0  0  0  0  0  0  0  0  0
    4.7490    0.7710   20.0070 C   0  0  0  0  0  0  0  0  0  0  0  0
    4.5740    0.6810   22.1750 H   0  0  0  0  0  0  0  0  0  0  0  0
    2.7530    2.3250   22.2960 H   0  0  0  0  0  0  0  0  0  0  0  0
    1.8610    3.3940   20.2450 H   0  0  0  0  0  0  0  0  0  0  0  0
    2.8020    2.7970   18.0320 H   0  0  0  0  0  0  0  0  0  0  0  0
    4.3970    1.4890   16.6780 H   0  0  0  0  0  0  0  0  0  0  0  0
    7.0270   -1.1660   18.4020 H   0  0  0  0  0  0  0  0  0  0  0  0
    5.7580   -1.1870   21.7670 H   0  0  0  0  0  0  0  0  0  0  0  0
    7.0610   -1.6850   20.6960 H   0  0  0  0  0  0  0  0  0  0  0  0
    7.7240   -0.0590   23.1130 N   0  0  0  0  0  0  0  0  0  0  0  0
    8.0020   -1.4080   23.6110 C   0  0  0  0  0  0  0  0  0  0  0  0
    9.2740   -2.0720   23.0420 C   0  0  0  0  0  0  0  0  0  0  0  0
   10.4450   -1.1130   22.8220 C   0  0  0  0  0  0  0  0  0  0  0  0
   10.7990    0.0110   24.2030 S   0  0  0  0  0  0  0  0  0  0  0  0
    9.7110    1.3830   23.7380 C   0  0  0  0  0  0  0  0  0  0  0  0
    8.2330    1.0470   23.9250 C   0  0  1  0  0  0  0  0  0  0  0  0
    7.3480    2.2870   23.8020 C   0  0  0  0  0  0  0  0  0  0  0  0
    6.0490    1.9530   23.8790 F   0  0  0  0  0  0  0  0  0  0  0  0
    7.5300    2.9700   22.6710 F   0  0  0  0  0  0  0  0  0  0  0  0
    7.5960    3.1390   24.8230 F   0  0  0  0  0  0  0  0  0  0  0  0
    8.1050    0.7450   24.9670 H   0  0  0  0  0  0  0  0  0  0  0  0
    9.9900    2.2510   24.3460 H   0  0  0  0  0  0  0  0  0  0  0  0
    9.9130    1.6420   22.7020 H   0  0  0  0  0  0  0  0  0  0  0  0
   11.3630   -1.6790   22.6350 H   0  0  0  0  0  0  0  0  0  0  0  0
   10.2740   -0.4830   21.9460 H   0  0  0  0  0  0  0  0  0  0  0  0
    9.0460   -2.5570   22.0820 H   0  0  0  0  0  0  0  0  0  0  0  0
    9.5910   -2.8750   23.7200 H   0  0  0  0  0  0  0  0  0  0  0  0
    8.0860   -1.3490   24.7000 H   0  0  0  0  0  0  0  0  0  0  0  0
    7.1360   -2.0410   23.4040 H   0  0  0  0  0  0  0  0  0  0  0  0
  1  2  2  0  0  0  0
  2  3  1  0  0  0  0
  2 22  1  0  0  0  0
  3  4  1  0  0  0  0
  3 20  1  0  0  0  0
  3 21  1  0  0  0  0
  4  5  2  0  0  0  0
  4 13  1  0  0  0  0
  5  6  1  0  0  0  0
  5 19  1  0  0  0  0
  6  7  2  0  0  0  0
  7  8  1  0  0  0  0
  7 18  1  0  0  0  0
  8  9  2  0  0  0  0
  8 13  1  0  0  0  0
  9 10  1  0  0  0  0
  9 17  1  0  0  0  0
 10 11  2  0  0  0  0
 10 16  1  0  0  0  0
 11 12  1  0  0  0  0
 11 15  1  0  0  0  0
 12 13  2  0  0  0  0
 12 14  1  0  0  0  0
 22 23  1  0  0  0  0
 22 28  1  0  0  0  0
 23 24  1  0  0  0  0
 23 40  1  0  0  0  0
 23 41  1  0  0  0  0
 24 25  1  0  0  0  0
 24 38  1  0  0  0  0
 24 39  1  0  0  0  0
 25 26  1  0  0  0  0
 25 36  1  0  0  0  0
 25 37  1  0  0  0  0
 26 27  1  0  0  0  0
 27 28  1  0  0  0  0
 27 34  1  0  0  0  0
 27 35  1  0  0  0  0
 28 29  1  0  0  0  0
 28 33  1  1  0  0  0
 29 30  1  0  0  0  0
 29 31  1  0  0  0  0
 29 32  1  0  0  0  0
M  END
>  <MODEL>
       3

$$$$
best_conformers_56.pdb
 OpenBabel02042510453D

 41 43  0  0  1  0  0  0  0  0999 V2000
    8.0800    0.9810   21.0900 O   0  0  0  0  0  0  0  0  0  0  0  0
    7.5060    0.1320   21.7390 C   0  0  0  0  0  0  0  0  0  0  0  0
    6.4960   -0.8100   21.0470 C   0  0  0  0  0  0  0  0  0  0  0  0
    5.8100   -0.1740   19.8530 C   0  0  0  0  0  0  0  0  0  0  0  0
    6.2350   -0.4370   18.5720 C   0  0  0  0  0  0  0  0  0  0  0  0
    5.7540    0.1360   17.4350 N   0  0  0  0  0  0  0  0  0  0  0  0
    4.7850    1.0110   17.5800 C   0  0  0  0  0  0  0  0  0  0  0  0
    4.2290    1.3800   18.8360 C   0  0  0  0  0  0  0  0  0  0  0  0
    3.1810    2.3320   18.9400 C   0  0  0  0  0  0  0  0  0  0  0  0
    2.6610    2.6620   20.1640 C   0  0  0  0  0  0  0  0  0  0  0  0
    3.1710    2.0530   21.3320 C   0  0  0  0  0  0  0  0  0  0  0  0
    4.1910    1.1320   21.2620 C   0  0  0  0  0  0  0  0  0  0  0  0
    4.7490    0.7710   20.0070 C   0  0  0  0  0  0  0  0  0  0  0  0
    4.5740    0.6810   22.1750 H   0  0  0  0  0  0  0  0  0  0  0  0
    2.7530    2.3250   22.2960 H   0  0  0  0  0  0  0  0  0  0  0  0
    1.8610    3.3940   20.2450 H   0  0  0  0  0  0  0  0  0  0  0  0
    2.8020    2.7970   18.0320 H   0  0  0  0  0  0  0  0  0  0  0  0
    4.3970    1.4890   16.6780 H   0  0  0  0  0  0  0  0  0  0  0  0
    7.0270   -1.1660   18.4020 H   0  0  0  0  0  0  0  0  0  0  0  0
    7.0610   -1.6850   20.6960 H   0  0  0  0  0  0  0  0  0  0  0  0
    5.7580   -1.1880   21.7670 H   0  0  0  0  0  0  0  0  0  0  0  0
    7.7240   -0.0590   23.1130 N   0  0  0  0  0  0  0  0  0  0  0  0
    8.0020   -1.4080   23.6110 C   0  0  0  0  0  0  0  0  0  0  0  0
    9.2740   -2.0720   23.0420 C   0  0  0  0  0  0  0  0  0  0  0  0
   10.4450   -1.1130   22.8220 C   0  0  0  0  0  0  0  0  0  0  0  0
   10.7990    0.0110   24.2030 S   0  0  0  0  0  0  0  0  0  0  0  0
    9.7110    1.3820   23.7380 C   0  0  0  0  0  0  0  0  0  0  0  0
    8.2330    1.0470   23.9250 C   0  0  1  0  0  0  0  0  0  0  0  0
    7.3480    2.2870   23.8020 C   0  0  0  0  0  0  0  0  0  0  0  0
    6.0490    1.9530   23.8790 F   0  0  0  0  0  0  0  0  0  0  0  0
    7.5960    3.1380   24.8240 F   0  0  0  0  0  0  0  0  0  0  0  0
    7.5300    2.9700   22.6710 F   0  0  0  0  0  0  0  0  0  0  0  0
    8.1060    0.7450   24.9670 H   0  0  0  0  0  0  0  0  0  0  0  0
    9.9900    2.2500   24.3460 H   0  0  0  0  0  0  0  0  0  0  0  0
    9.9130    1.6420   22.7020 H   0  0  0  0  0  0  0  0  0  0  0  0
   11.3630   -1.6790   22.6340 H   0  0  0  0  0  0  0  0  0  0  0  0
   10.2730   -0.4830   21.9460 H   0  0  0  0  0  0  0  0  0  0  0  0
    9.0460   -2.5570   22.0810 H   0  0  0  0  0  0  0  0  0  0  0  0
    9.5910   -2.8750   23.7200 H   0  0  0  0  0  0  0  0  0  0  0  0
    8.0860   -1.3500   24.7000 H   0  0  0  0  0  0  0  0  0  0  0  0
    7.1360   -2.0410   23.4040 H   0  0  0  0  0  0  0  0  0  0  0  0
  1  2  2  0  0  0  0
  2  3  1  0  0  0  0
  2 22  1  0  0  0  0
  3  4  1  0  0  0  0
  3 20  1  0  0  0  0
  3 21  1  0  0  0  0
  4  5  2  0  0  0  0
  4 13  1  0  0  0  0
  5  6  1  0  0  0  0
  5 19  1  0  0  0  0
  6  7  2  0  0  0  0
  7  8  1  0  0  0  0
  7 18  1  0  0  0  0
  8  9  2  0  0  0  0
  8 13  1  0  0  0  0
  9 10  1  0  0  0  0
  9 17  1  0  0  0  0
 10 11  2  0  0  0  0
 10 16  1  0  0  0  0
 11 12  1  0  0  0  0
 11 15  1  0  0  0  0
 12 13  2  0  0  0  0
 12 14  1  0  0  0  0
 22 23  1  0  0  0  0
 22 28  1  0  0  0  0
 23 24  1  0  0  0  0
 23 40  1  0  0  0  0
 23 41  1  0  0  0  0
 24 25  1  0  0  0  0
 24 38  1  0  0  0  0
 24 39  1  0  0  0  0
 25 26  1  0  0  0  0
 25 36  1  0  0  0  0
 25 37  1  0  0  0  0
 26 27  1  0  0  0  0
 27 28  1  0  0  0  0
 27 34  1  0  0  0  0
 27 35  1  0  0  0  0
 28 29  1  0  0  0  0
 28 33  1  1  0  0  0
 29 30  1  0  0  0  0
 29 31  1  0  0  0  0
 29 32  1  0  0  0  0
M  END
>  <MODEL>
       4

$$$$
best_conformers_56.pdb
 OpenBabel02042510453D

 41 43  0  0  1  0  0  0  0  0999 V2000
    4.6480   -2.5110   20.9420 O   0  0  0  0  0  0  0  0  0  0  0  0
    5.5520   -2.0390   21.6030 C   0  0  0  0  0  0  0  0  0  0  0  0
    6.4190   -0.8890   21.0450 C   0  0  0  0  0  0  0  0  0  0  0  0
    5.8030   -0.1890   19.8580 C   0  0  0  0  0  0  0  0  0  0  0  0
    6.2330   -0.4540   18.5840 C   0  0  0  0  0  0  0  0  0  0  0  0
    5.7620    0.1300   17.4470 N   0  0  0  0  0  0  0  0  0  0  0  0
    4.7950    1.0060   17.5890 C   0  0  0  0  0  0  0  0  0  0  0  0
    4.2300    1.3680   18.8420 C   0  0  0  0  0  0  0  0  0  0  0  0
    3.1780    2.3150   18.9440 C   0  0  0  0  0  0  0  0  0  0  0  0
    2.6440    2.6350   20.1620 C   0  0  0  0  0  0  0  0  0  0  0  0
    3.1440    2.0210   21.3370 C   0  0  0  0  0  0  0  0  0  0  0  0
    4.1680    1.1050   21.2630 C   0  0  0  0  0  0  0  0  0  0  0  0
    4.7400    0.7540   20.0120 C   0  0  0  0  0  0  0  0  0  0  0  0
    4.5370    0.6390   22.1750 H   0  0  0  0  0  0  0  0  0  0  0  0
    2.7170    2.2800   22.2990 H   0  0  0  0  0  0  0  0  0  0  0  0
    1.8390    3.3610   20.2390 H   0  0  0  0  0  0  0  0  0  0  0  0
    2.8090    2.7820   18.0320 H   0  0  0  0  0  0  0  0  0  0  0  0
    4.4070    1.4760   16.6830 H   0  0  0  0  0  0  0  0  0  0  0  0
    7.0240   -1.1820   18.4060 H   0  0  0  0  0  0  0  0  0  0  0  0
    6.6550   -0.1740   21.8470 H   0  0  0  0  0  0  0  0  0  0  0  0
    7.3830   -1.3200   20.7380 H   0  0  0  0  0  0  0  0  0  0  0  0
    5.8470   -2.5240   22.8690 N   0  0  0  0  0  0  0  0  0  0  0  0
    7.2080   -2.5610   23.3900 C   0  0  0  0  0  0  0  0  0  0  0  0
    8.0730   -3.6720   22.7750 C   0  0  0  0  0  0  0  0  0  0  0  0
    7.7580   -5.0630   23.3390 C   0  0  0  0  0  0  0  0  0  0  0  0
    6.1000   -5.7070   23.0000 S   0  0  0  0  0  0  0  0  0  0  0  0
    5.2060   -4.6290   24.1420 C   0  0  0  0  0  0  0  0  0  0  0  0
    4.8030   -3.2790   23.5380 C   0  0  1  0  0  0  0  0  0  0  0  0
    4.1850   -2.3830   24.6220 C   0  0  0  0  0  0  0  0  0  0  0  0
    3.1520   -2.9950   25.2320 F   0  0  0  0  0  0  0  0  0  0  0  0
    5.0860   -2.0930   25.5850 F   0  0  0  0  0  0  0  0  0  0  0  0
    3.7650   -1.2220   24.1020 F   0  0  0  0  0  0  0  0  0  0  0  0
    4.0800   -3.4820   22.7450 H   0  0  0  0  0  0  0  0  0  0  0  0
    4.3050   -5.1740   24.4360 H   0  0  0  0  0  0  0  0  0  0  0  0
    5.8150   -4.5010   25.0430 H   0  0  0  0  0  0  0  0  0  0  0  0
    7.9030   -5.0670   24.4280 H   0  0  0  0  0  0  0  0  0  0  0  0
    8.4210   -5.8330   22.9580 H   0  0  0  0  0  0  0  0  0  0  0  0
    9.1280   -3.4450   22.9870 H   0  0  0  0  0  0  0  0  0  0  0  0
    7.9600   -3.6620   21.6820 H   0  0  0  0  0  0  0  0  0  0  0  0
    7.1240   -2.6950   24.4730 H   0  0  0  0  0  0  0  0  0  0  0  0
    7.6520   -1.5760   23.2130 H   0  0  0  0  0  0  0  0  0  0  0  0
  1  2  2  0  0  0  0
  2  3  1  0  0  0  0
  2 22  1  0  0  0  0
  3  4  1  0  0  0  0
  3 20  1  0  0  0  0
  3 21  1  0  0  0  0
  4  5  2  0  0  0  0
  4 13  1  0  0  0  0
  5  6  1  0  0  0  0
  5 19  1  0  0  0  0
  6  7  2  0  0  0  0
  7  8  1  0  0  0  0
  7 18  1  0  0  0  0
  8  9  2  0  0  0  0
  8 13  1  0  0  0  0
  9 10  1  0  0  0  0
  9 17  1  0  0  0  0
 10 11  2  0  0  0  0
 10 16  1  0  0  0  0
 11 12  1  0  0  0  0
 11 15  1  0  0  0  0
 12 13  2  0  0  0  0
 12 14  1  0  0  0  0
 22 23  1  0  0  0  0
 22 28  1  0  0  0  0
 23 24  1  0  0  0  0
 23 40  1  0  0  0  0
 23 41  1  0  0  0  0
 24 25  1  0  0  0  0
 24 38  1  0  0  0  0
 24 39  1  0  0  0  0
 25 26  1  0  0  0  0
 25 36  1  0  0  0  0
 25 37  1  0  0  0  0
 26 27  1  0  0  0  0
 27 28  1  0  0  0  0
 27 34  1  0  0  0  0
 27 35  1  0  0  0  0
 28 29  1  0  0  0  0
 28 33  1  6  0  0  0
 29 30  1  0  0  0  0
 29 31  1  0  0  0  0
 29 32  1  0  0  0  0
M  END
>  <MODEL>
       5

$$$$
best_conformers_56.pdb
 OpenBabel02042510453D

 41 43  0  0  1  0  0  0  0  0999 V2000
    4.6470   -2.5100   20.9430 O   0  0  0  0  0  0  0  0  0  0  0  0
    5.5520   -2.0390   21.6030 C   0  0  0  0  0  0  0  0  0  0  0  0
    6.4190   -0.8890   21.0450 C   0  0  0  0  0  0  0  0  0  0  0  0
    5.8030   -0.1890   19.8580 C   0  0  0  0  0  0  0  0  0  0  0  0
    6.2330   -0.4540   18.5840 C   0  0  0  0  0  0  0  0  0  0  0  0
    5.7620    0.1300   17.4470 N   0  0  0  0  0  0  0  0  0  0  0  0
    4.7950    1.0060   17.5890 C   0  0  0  0  0  0  0  0  0  0  0  0
    4.2300    1.3680   18.8420 C   0  0  0  0  0  0  0  0  0  0  0  0
    3.1780    2.3150   18.9450 C   0  0  0  0  0  0  0  0  0  0  0  0
    2.6440    2.6350   20.1620 C   0  0  0  0  0  0  0  0  0  0  0  0
    3.1440    2.0210   21.3370 C   0  0  0  0  0  0  0  0  0  0  0  0
    4.1680    1.1050   21.2630 C   0  0  0  0  0  0  0  0  0  0  0  0
    4.7400    0.7540   20.0120 C   0  0  0  0  0  0  0  0  0  0  0  0
    4.5370    0.6390   22.1750 H   0  0  0  0  0  0  0  0  0  0  0  0
    2.7170    2.2800   22.2990 H   0  0  0  0  0  0  0  0  0  0  0  0
    1.8390    3.3610   20.2390 H   0  0  0  0  0  0  0  0  0  0  0  0
    2.8090    2.7820   18.0320 H   0  0  0  0  0  0  0  0  0  0  0  0
    4.4080    1.4760   16.6830 H   0  0  0  0  0  0  0  0  0  0  0  0
    7.0240   -1.1820   18.4060 H   0  0  0  0  0  0  0  0  0  0  0  0
    7.3830   -1.3200   20.7380 H   0  0  0  0  0  0  0  0  0  0  0  0
    6.6550   -0.1740   21.8470 H   0  0  0  0  0  0  0  0  0  0  0  0
    5.8480   -2.5240   22.8690 N   0  0  0  0  0  0  0  0  0  0  0  0
    7.2080   -2.5610   23.3900 C   0  0  0  0  0  0  0  0  0  0  0  0
    8.0730   -3.6730   22.7730 C   0  0  0  0  0  0  0  0  0  0  0  0
    7.7580   -5.0640   23.3370 C   0  0  0  0  0  0  0  0  0  0  0  0
    6.1000   -5.7080   22.9990 S   0  0  0  0  0  0  0  0  0  0  0  0
    5.2060   -4.6290   24.1410 C   0  0  0  0  0  0  0  0  0  0  0  0
    4.8040   -3.2790   23.5380 C   0  0  1  0  0  0  0  0  0  0  0  0
    4.1860   -2.3830   24.6220 C   0  0  0  0  0  0  0  0  0  0  0  0
    5.0880   -2.0930   25.5850 F   0  0  0  0  0  0  0  0  0  0  0  0
    3.1530   -2.9950   25.2330 F   0  0  0  0  0  0  0  0  0  0  0  0
    3.7660   -1.2220   24.1030 F   0  0  0  0  0  0  0  0  0  0  0  0
    4.0800   -3.4820   22.7450 H   0  0  0  0  0  0  0  0  0  0  0  0
    4.3060   -5.1740   24.4360 H   0  0  0  0  0  0  0  0  0  0  0  0
    5.8160   -4.5020   25.0420 H   0  0  0  0  0  0  0  0  0  0  0  0
    8.4200   -5.8350   22.9570 H   0  0  0  0  0  0  0  0  0  0  0  0
    7.9030   -5.0670   24.4260 H   0  0  0  0  0  0  0  0  0  0  0  0
    7.9600   -3.6630   21.6800 H   0  0  0  0  0  0  0  0  0  0  0  0
    9.1280   -3.4460   22.9850 H   0  0  0  0  0  0  0  0  0  0  0  0
    7.1250   -2.6960   24.4720 H   0  0  0  0  0  0  0  0  0  0  0  0
    7.6530   -1.5760   23.2130 H   0  0  0  0  0  0  0  0  0  0  0  0
  1  2  2  0  0  0  0
  2  3  1  0  0  0  0
  2 22  1  0  0  0  0
  3  4  1  0  0  0  0
  3 20  1  0  0  0  0
  3 21  1  0  0  0  0
  4  5  2  0  0  0  0
  4 13  1  0  0  0  0
  5  6  1  0  0  0  0
  5 19  1  0  0  0  0
  6  7  2  0  0  0  0
  7  8  1  0  0  0  0
  7 18  1  0  0  0  0
  8  9  2  0  0  0  0
  8 13  1  0  0  0  0
  9 10  1  0  0  0  0
  9 17  1  0  0  0  0
 10 11  2  0  0  0  0
 10 16  1  0  0  0  0
 11 12  1  0  0  0  0
 11 15  1  0  0  0  0
 12 13  2  0  0  0  0
 12 14  1  0  0  0  0
 22 23  1  0  0  0  0
 22 28  1  0  0  0  0
 23 24  1  0  0  0  0
 23 40  1  0  0  0  0
 23 41  1  0  0  0  0
 24 25  1  0  0  0  0
 24 38  1  0  0  0  0
 24 39  1  0  0  0  0
 25 26  1  0  0  0  0
 25 36  1  0  0  0  0
 25 37  1  0  0  0  0
 26 27  1  0  0  0  0
 27 28  1  0  0  0  0
 27 34  1  0  0  0  0
 27 35  1  0  0  0  0
 28 29  1  0  0  0  0
 28 33  1  6  0  0  0
 29 30  1  0  0  0  0
 29 31  1  0  0  0  0
 29 32  1  0  0  0  0
M  END
>  <MODEL>
       6

$$$$
best_conformers_56.pdb
 OpenBabel02042510453D

 41 43  0  0  1  0  0  0  0  0999 V2000
    4.6470   -2.5110   20.9420 O   0  0  0  0  0  0  0  0  0  0  0  0
    5.5520   -2.0390   21.6020 C   0  0  0  0  0  0  0  0  0  0  0  0
    6.4190   -0.8890   21.0450 C   0  0  0  0  0  0  0  0  0  0  0  0
    5.8030   -0.1890   19.8580 C   0  0  0  0  0  0  0  0  0  0  0  0
    6.2330   -0.4540   18.5840 C   0  0  0  0  0  0  0  0  0  0  0  0
    5.7620    0.1300   17.4470 N   0  0  0  0  0  0  0  0  0  0  0  0
    4.7950    1.0060   17.5890 C   0  0  0  0  0  0  0  0  0  0  0  0
    4.2300    1.3680   18.8420 C   0  0  0  0  0  0  0  0  0  0  0  0
    3.1780    2.3150   18.9450 C   0  0  0  0  0  0  0  0  0  0  0  0
    2.6440    2.6350   20.1620 C   0  0  0  0  0  0  0  0  0  0  0  0
    3.1440    2.0210   21.3370 C   0  0  0  0  0  0  0  0  0  0  0  0
    4.1680    1.1050   21.2630 C   0  0  0  0  0  0  0  0  0  0  0  0
    4.7400    0.7540   20.0120 C   0  0  0  0  0  0  0  0  0  0  0  0
    4.5370    0.6390   22.1750 H   0  0  0  0  0  0  0  0  0  0  0  0
    2.7170    2.2800   22.2990 H   0  0  0  0  0  0  0  0  0  0  0  0
    1.8390    3.3610   20.2390 H   0  0  0  0  0  0  0  0  0  0  0  0
    2.8090    2.7820   18.0320 H   0  0  0  0  0  0  0  0  0  0  0  0
    4.4070    1.4760   16.6830 H   0  0  0  0  0  0  0  0  0  0  0  0
    7.0240   -1.1820   18.4060 H   0  0  0  0  0  0  0  0  0  0  0  0
    7.3830   -1.3200   20.7380 H   0  0  0  0  0  0  0  0  0  0  0  0
    6.6540   -0.1740   21.8470 H   0  0  0  0  0  0  0  0  0  0  0  0
    5.8470   -2.5240   22.8690 N   0  0  0  0  0  0  0  0  0  0  0  0
    7.2080   -2.5610   23.3900 C   0  0  0  0  0  0  0  0  0  0  0  0
    8.0730   -3.6720   22.7750 C   0  0  0  0  0  0  0  0  0  0  0  0
    7.7580   -5.0630   23.3390 C   0  0  0  0  0  0  0  0  0  0  0  0
    6.1000   -5.7070   23.0000 S   0  0  0  0  0  0  0  0  0  0  0  0
    5.2060   -4.6290   24.1410 C   0  0  0  0  0  0  0  0  0  0  0  0
    4.8030   -3.2790   23.5380 C   0  0  1  0  0  0  0  0  0  0  0  0
    4.1850   -2.3830   24.6220 C   0  0  0  0  0  0  0  0  0  0  0  0
    5.0860   -2.0930   25.5850 F   0  0  0  0  0  0  0  0  0  0  0  0
    3.7650   -1.2220   24.1020 F   0  0  0  0  0  0  0  0  0  0  0  0
    3.1520   -2.9950   25.2320 F   0  0  0  0  0  0  0  0  0  0  0  0
    4.0800   -3.4820   22.7450 H   0  0  0  0  0  0  0  0  0  0  0  0
    4.3050   -5.1740   24.4350 H   0  0  0  0  0  0  0  0  0  0  0  0
    5.8150   -4.5010   25.0420 H   0  0  0  0  0  0  0  0  0  0  0  0
    8.4210   -5.8340   22.9580 H   0  0  0  0  0  0  0  0  0  0  0  0
    7.9030   -5.0670   24.4270 H   0  0  0  0  0  0  0  0  0  0  0  0
    7.9600   -3.6620   21.6820 H   0  0  0  0  0  0  0  0  0  0  0  0
    9.1280   -3.4450   22.9870 H   0  0  0  0  0  0  0  0  0  0  0  0
    7.1240   -2.6950   24.4730 H   0  0  0  0  0  0  0  0  0  0  0  0
    7.6520   -1.5760   23.2130 H   0  0  0  0  0  0  0  0  0  0  0  0
  1  2  2  0  0  0  0
  2  3  1  0  0  0  0
  2 22  1  0  0  0  0
  3  4  1  0  0  0  0
  3 20  1  0  0  0  0
  3 21  1  0  0  0  0
  4  5  2  0  0  0  0
  4 13  1  0  0  0  0
  5  6  1  0  0  0  0
  5 19  1  0  0  0  0
  6  7  2  0  0  0  0
  7  8  1  0  0  0  0
  7 18  1  0  0  0  0
  8  9  2  0  0  0  0
  8 13  1  0  0  0  0
  9 10  1  0  0  0  0
  9 17  1  0  0  0  0
 10 11  2  0  0  0  0
 10 16  1  0  0  0  0
 11 12  1  0  0  0  0
 11 15  1  0  0  0  0
 12 13  2  0  0  0  0
 12 14  1  0  0  0  0
 22 23  1  0  0  0  0
 22 28  1  0  0  0  0
 23 24  1  0  0  0  0
 23 40  1  0  0  0  0
 23 41  1  0  0  0  0
 24 25  1  0  0  0  0
 24 38  1  0  0  0  0
 24 39  1  0  0  0  0
 25 26  1  0  0  0  0
 25 36  1  0  0  0  0
 25 37  1  0  0  0  0
 26 27  1  0  0  0  0
 27 28  1  0  0  0  0
 27 34  1  0  0  0  0
 27 35  1  0  0  0  0
 28 29  1  0  0  0  0
 28 33  1  6  0  0  0
 29 30  1  0  0  0  0
 29 31  1  0  0  0  0
 29 32  1  0  0  0  0
M  END
>  <MODEL>
       7

$$$$
best_conformers_56.pdb
 OpenBabel02042510453D

 41 43  0  0  1  0  0  0  0  0999 V2000
    4.6470   -2.5110   20.9420 O   0  0  0  0  0  0  0  0  0  0  0  0
    5.5520   -2.0390   21.6020 C   0  0  0  0  0  0  0  0  0  0  0  0
    6.4190   -0.8890   21.0450 C   0  0  0  0  0  0  0  0  0  0  0  0
    5.8030   -0.1890   19.8580 C   0  0  0  0  0  0  0  0  0  0  0  0
    6.2330   -0.4540   18.5840 C   0  0  0  0  0  0  0  0  0  0  0  0
    5.7620    0.1300   17.4470 N   0  0  0  0  0  0  0  0  0  0  0  0
    4.7950    1.0060   17.5890 C   0  0  0  0  0  0  0  0  0  0  0  0
    4.2300    1.3680   18.8420 C   0  0  0  0  0  0  0  0  0  0  0  0
    3.1780    2.3150   18.9440 C   0  0  0  0  0  0  0  0  0  0  0  0
    2.6440    2.6350   20.1620 C   0  0  0  0  0  0  0  0  0  0  0  0
    3.1440    2.0210   21.3370 C   0  0  0  0  0  0  0  0  0  0  0  0
    4.1680    1.1050   21.2630 C   0  0  0  0  0  0  0  0  0  0  0  0
    4.7400    0.7540   20.0120 C   0  0  0  0  0  0  0  0  0  0  0  0
    4.5370    0.6390   22.1750 H   0  0  0  0  0  0  0  0  0  0  0  0
    2.7170    2.2800   22.2990 H   0  0  0  0  0  0  0  0  0  0  0  0
    1.8390    3.3610   20.2390 H   0  0  0  0  0  0  0  0  0  0  0  0
    2.8090    2.7820   18.0320 H   0  0  0  0  0  0  0  0  0  0  0  0
    4.4070    1.4760   16.6830 H   0  0  0  0  0  0  0  0  0  0  0  0
    7.0240   -1.1820   18.4060 H   0  0  0  0  0  0  0  0  0  0  0  0
    7.3830   -1.3200   20.7380 H   0  0  0  0  0  0  0  0  0  0  0  0
    6.6540   -0.1740   21.8470 H   0  0  0  0  0  0  0  0  0  0  0  0
    5.8470   -2.5240   22.8690 N   0  0  0  0  0  0  0  0  0  0  0  0
    7.2080   -2.5610   23.3900 C   0  0  0  0  0  0  0  0  0  0  0  0
    8.0730   -3.6720   22.7740 C   0  0  0  0  0  0  0  0  0  0  0  0
    7.7580   -5.0630   23.3380 C   0  0  0  0  0  0  0  0  0  0  0  0
    6.1000   -5.7080   23.0000 S   0  0  0  0  0  0  0  0  0  0  0  0
    5.2060   -4.6290   24.1410 C   0  0  0  0  0  0  0  0  0  0  0  0
    4.8030   -3.2790   23.5380 C   0  0  1  0  0  0  0  0  0  0  0  0
    4.1850   -2.3830   24.6210 C   0  0  0  0  0  0  0  0  0  0  0  0
    3.7650   -1.2220   24.1020 F   0  0  0  0  0  0  0  0  0  0  0  0
    3.1520   -2.9950   25.2320 F   0  0  0  0  0  0  0  0  0  0  0  0
    5.0860   -2.0930   25.5850 F   0  0  0  0  0  0  0  0  0  0  0  0
    4.0800   -3.4820   22.7450 H   0  0  0  0  0  0  0  0  0  0  0  0
    5.8150   -4.5020   25.0420 H   0  0  0  0  0  0  0  0  0  0  0  0
    4.3050   -5.1740   24.4350 H   0  0  0  0  0  0  0  0  0  0  0  0
    8.4200   -5.8340   22.9580 H   0  0  0  0  0  0  0  0  0  0  0  0
    7.9030   -5.0670   24.4270 H   0  0  0  0  0  0  0  0  0  0  0  0
    7.9600   -3.6630   21.6810 H   0  0  0  0  0  0  0  0  0  0  0  0
    9.1280   -3.4450   22.9870 H   0  0  0  0  0  0  0  0  0  0  0  0
    7.6520   -1.5760   23.2130 H   0  0  0  0  0  0  0  0  0  0  0  0
    7.1240   -2.6950   24.4730 H   0  0  0  0  0  0  0  0  0  0  0  0
  1  2  2  0  0  0  0
  2  3  1  0  0  0  0
  2 22  1  0  0  0  0
  3  4  1  0  0  0  0
  3 20  1  0  0  0  0
  3 21  1  0  0  0  0
  4  5  2  0  0  0  0
  4 13  1  0  0  0  0
  5  6  1  0  0  0  0
  5 19  1  0  0  0  0
  6  7  2  0  0  0  0
  7  8  1  0  0  0  0
  7 18  1  0  0  0  0
  8  9  2  0  0  0  0
  8 13  1  0  0  0  0
  9 10  1  0  0  0  0
  9 17  1  0  0  0  0
 10 11  2  0  0  0  0
 10 16  1  0  0  0  0
 11 12  1  0  0  0  0
 11 15  1  0  0  0  0
 12 13  2  0  0  0  0
 12 14  1  0  0  0  0
 22 23  1  0  0  0  0
 22 28  1  0  0  0  0
 23 24  1  0  0  0  0
 23 40  1  0  0  0  0
 23 41  1  0  0  0  0
 24 25  1  0  0  0  0
 24 38  1  0  0  0  0
 24 39  1  0  0  0  0
 25 26  1  0  0  0  0
 25 36  1  0  0  0  0
 25 37  1  0  0  0  0
 26 27  1  0  0  0  0
 27 28  1  0  0  0  0
 27 34  1  0  0  0  0
 27 35  1  0  0  0  0
 28 29  1  0  0  0  0
 28 33  1  6  0  0  0
 29 30  1  0  0  0  0
 29 31  1  0  0  0  0
 29 32  1  0  0  0  0
M  END
>  <MODEL>
       8

$$$$
best_conformers_56.pdb
 OpenBabel02042510453D

 41 43  0  0  1  0  0  0  0  0999 V2000
    4.6470   -2.5110   20.9420 O   0  0  0  0  0  0  0  0  0  0  0  0
    5.5510   -2.0390   21.6020 C   0  0  0  0  0  0  0  0  0  0  0  0
    6.4190   -0.8890   21.0450 C   0  0  0  0  0  0  0  0  0  0  0  0
    5.8030   -0.1890   19.8580 C   0  0  0  0  0  0  0  0  0  0  0  0
    6.2330   -0.4540   18.5840 C   0  0  0  0  0  0  0  0  0  0  0  0
    5.7620    0.1300   17.4470 N   0  0  0  0  0  0  0  0  0  0  0  0
    4.7950    1.0060   17.5890 C   0  0  0  0  0  0  0  0  0  0  0  0
    4.2300    1.3680   18.8420 C   0  0  0  0  0  0  0  0  0  0  0  0
    3.1780    2.3150   18.9450 C   0  0  0  0  0  0  0  0  0  0  0  0
    2.6440    2.6350   20.1620 C   0  0  0  0  0  0  0  0  0  0  0  0
    3.1440    2.0210   21.3370 C   0  0  0  0  0  0  0  0  0  0  0  0
    4.1670    1.1050   21.2630 C   0  0  0  0  0  0  0  0  0  0  0  0
    4.7400    0.7540   20.0120 C   0  0  0  0  0  0  0  0  0  0  0  0
    4.5370    0.6380   22.1750 H   0  0  0  0  0  0  0  0  0  0  0  0
    2.7170    2.2800   22.2990 H   0  0  0  0  0  0  0  0  0  0  0  0
    1.8390    3.3610   20.2390 H   0  0  0  0  0  0  0  0  0  0  0  0
    2.8090    2.7820   18.0320 H   0  0  0  0  0  0  0  0  0  0  0  0
    4.4080    1.4760   16.6830 H   0  0  0  0  0  0  0  0  0  0  0  0
    7.0240   -1.1820   18.4060 H   0  0  0  0  0  0  0  0  0  0  0  0
    6.6540   -0.1740   21.8470 H   0  0  0  0  0  0  0  0  0  0  0  0
    7.3830   -1.3200   20.7380 H   0  0  0  0  0  0  0  0  0  0  0  0
    5.8470   -2.5250   22.8680 N   0  0  0  0  0  0  0  0  0  0  0  0
    7.2080   -2.5620   23.3900 C   0  0  0  0  0  0  0  0  0  0  0  0
    8.0730   -3.6720   22.7740 C   0  0  0  0  0  0  0  0  0  0  0  0
    7.7580   -5.0640   23.3370 C   0  0  0  0  0  0  0  0  0  0  0  0
    6.1000   -5.7080   22.9980 S   0  0  0  0  0  0  0  0  0  0  0  0
    5.2060   -4.6310   24.1400 C   0  0  0  0  0  0  0  0  0  0  0  0
    4.8030   -3.2810   23.5370 C   0  0  1  0  0  0  0  0  0  0  0  0
    4.1850   -2.3850   24.6210 C   0  0  0  0  0  0  0  0  0  0  0  0
    3.1520   -2.9970   25.2320 F   0  0  0  0  0  0  0  0  0  0  0  0
    3.7650   -1.2230   24.1030 F   0  0  0  0  0  0  0  0  0  0  0  0
    5.0860   -2.0950   25.5840 F   0  0  0  0  0  0  0  0  0  0  0  0
    4.0800   -3.4830   22.7440 H   0  0  0  0  0  0  0  0  0  0  0  0
    5.8150   -4.5030   25.0410 H   0  0  0  0  0  0  0  0  0  0  0  0
    4.3050   -5.1760   24.4330 H   0  0  0  0  0  0  0  0  0  0  0  0
    8.4200   -5.8350   22.9570 H   0  0  0  0  0  0  0  0  0  0  0  0
    7.9030   -5.0670   24.4260 H   0  0  0  0  0  0  0  0  0  0  0  0
    9.1280   -3.4450   22.9860 H   0  0  0  0  0  0  0  0  0  0  0  0
    7.9600   -3.6630   21.6810 H   0  0  0  0  0  0  0  0  0  0  0  0
    7.1240   -2.6960   24.4720 H   0  0  0  0  0  0  0  0  0  0  0  0
    7.6520   -1.5760   23.2130 H   0  0  0  0  0  0  0  0  0  0  0  0
  1  2  2  0  0  0  0
  2  3  1  0  0  0  0
  2 22  1  0  0  0  0
  3  4  1  0  0  0  0
  3 20  1  0  0  0  0
  3 21  1  0  0  0  0
  4  5  2  0  0  0  0
  4 13  1  0  0  0  0
  5  6  1  0  0  0  0
  5 19  1  0  0  0  0
  6  7  2  0  0  0  0
  7  8  1  0  0  0  0
  7 18  1  0  0  0  0
  8  9  2  0  0  0  0
  8 13  1  0  0  0  0
  9 10  1  0  0  0  0
  9 17  1  0  0  0  0
 10 11  2  0  0  0  0
 10 16  1  0  0  0  0
 11 12  1  0  0  0  0
 11 15  1  0  0  0  0
 12 13  2  0  0  0  0
 12 14  1  0  0  0  0
 22 23  1  0  0  0  0
 22 28  1  0  0  0  0
 23 24  1  0  0  0  0
 23 40  1  0  0  0  0
 23 41  1  0  0  0  0
 24 25  1  0  0  0  0
 24 38  1  0  0  0  0
 24 39  1  0  0  0  0
 25 26  1  0  0  0  0
 25 36  1  0  0  0  0
 25 37  1  0  0  0  0
 26 27  1  0  0  0  0
 27 28  1  0  0  0  0
 27 34  1  0  0  0  0
 27 35  1  0  0  0  0
 28 29  1  0  0  0  0
 28 33  1  6  0  0  0
 29 30  1  0  0  0  0
 29 31  1  0  0  0  0
 29 32  1  0  0  0  0
M  END
>  <MODEL>
       9

$$$$
best_conformers_56.pdb
 OpenBabel02042510453D

 41 43  0  0  1  0  0  0  0  0999 V2000
    7.7660    1.1420   21.3620 O   0  0  0  0  0  0  0  0  0  0  0  0
    7.3880    0.1010   21.8640 C   0  0  0  0  0  0  0  0  0  0  0  0
    6.4660   -0.8460   21.0520 C   0  0  0  0  0  0  0  0  0  0  0  0
    5.8130   -0.1750   19.8580 C   0  0  0  0  0  0  0  0  0  0  0  0
    6.2360   -0.4360   18.5760 C   0  0  0  0  0  0  0  0  0  0  0  0
    5.7550    0.1370   17.4380 N   0  0  0  0  0  0  0  0  0  0  0  0
    4.7860    1.0120   17.5810 C   0  0  0  0  0  0  0  0  0  0  0  0
    4.2310    1.3800   18.8380 C   0  0  0  0  0  0  0  0  0  0  0  0
    3.1790    2.3290   18.9410 C   0  0  0  0  0  0  0  0  0  0  0  0
    2.6590    2.6590   20.1650 C   0  0  0  0  0  0  0  0  0  0  0  0
    3.1710    2.0540   21.3330 C   0  0  0  0  0  0  0  0  0  0  0  0
    4.1920    1.1340   21.2630 C   0  0  0  0  0  0  0  0  0  0  0  0
    4.7550    0.7750   20.0090 C   0  0  0  0  0  0  0  0  0  0  0  0
    4.5740    0.6820   22.1760 H   0  0  0  0  0  0  0  0  0  0  0  0
    2.7570    2.3240   22.2980 H   0  0  0  0  0  0  0  0  0  0  0  0
    1.8570    3.3880   20.2440 H   0  0  0  0  0  0  0  0  0  0  0  0
    2.7990    2.7920   18.0330 H   0  0  0  0  0  0  0  0  0  0  0  0
    4.3970    1.4890   16.6790 H   0  0  0  0  0  0  0  0  0  0  0  0
    7.0240   -1.1690   18.4060 H   0  0  0  0  0  0  0  0  0  0  0  0
    5.7070   -1.2920   21.7020 H   0  0  0  0  0  0  0  0  0  0  0  0
    7.0960   -1.6690   20.6870 H   0  0  0  0  0  0  0  0  0  0  0  0
    7.7910   -0.2430   23.1510 N   0  0  0  0  0  0  0  0  0  0  0  0
    8.6480    0.7090   23.8730 C   0  0  0  0  0  0  0  0  0  0  0  0
   10.1710    0.4710   23.7340 C   0  0  0  0  0  0  0  0  0  0  0  0
   10.5650   -0.6180   22.7470 C   0  0  0  0  0  0  0  0  0  0  0  0
   10.2870   -2.3170   23.3330 S   0  0  0  0  0  0  0  0  0  0  0  0
    8.8640   -2.1170   24.4350 C   0  0  0  0  0  0  0  0  0  0  0  0
    7.6200   -1.5610   23.7330 C   0  0  1  0  0  0  0  0  0  0  0  0
    6.4330   -1.5470   24.6910 C   0  0  0  0  0  0  0  0  0  0  0  0
    5.3590   -0.9790   24.1210 F   0  0  0  0  0  0  0  0  0  0  0  0
    6.7010   -0.8660   25.8220 F   0  0  0  0  0  0  0  0  0  0  0  0
    6.0850   -2.7930   25.0620 F   0  0  0  0  0  0  0  0  0  0  0  0
    7.3600   -2.2750   22.9490 H   0  0  0  0  0  0  0  0  0  0  0  0
    9.1500   -1.5200   25.3020 H   0  0  0  0  0  0  0  0  0  0  0  0
    8.6550   -3.1190   24.8210 H   0  0  0  0  0  0  0  0  0  0  0  0
   11.6350   -0.5540   22.5270 H   0  0  0  0  0  0  0  0  0  0  0  0
   10.0480   -0.4720   21.7970 H   0  0  0  0  0  0  0  0  0  0  0  0
   10.6520    1.4070   23.4240 H   0  0  0  0  0  0  0  0  0  0  0  0
   10.6130    0.2330   24.7070 H   0  0  0  0  0  0  0  0  0  0  0  0
    8.3700    0.6840   24.9290 H   0  0  0  0  0  0  0  0  0  0  0  0
    8.3930    1.7050   23.5150 H   0  0  0  0  0  0  0  0  0  0  0  0
  1  2  2  0  0  0  0
  2  3  1  0  0  0  0
  2 22  1  0  0  0  0
  3  4  1  0  0  0  0
  3 20  1  0  0  0  0
  3 21  1  0  0  0  0
  4  5  2  0  0  0  0
  4 13  1  0  0  0  0
  5  6  1  0  0  0  0
  5 19  1  0  0  0  0
  6  7  2  0  0  0  0
  7  8  1  0  0  0  0
  7 18  1  0  0  0  0
  8  9  2  0  0  0  0
  8 13  1  0  0  0  0
  9 10  1  0  0  0  0
  9 17  1  0  0  0  0
 10 11  2  0  0  0  0
 10 16  1  0  0  0  0
 11 12  1  0  0  0  0
 11 15  1  0  0  0  0
 12 13  2  0  0  0  0
 12 14  1  0  0  0  0
 22 23  1  0  0  0  0
 22 28  1  0  0  0  0
 23 24  1  0  0  0  0
 23 40  1  0  0  0  0
 23 41  1  0  0  0  0
 24 25  1  0  0  0  0
 24 38  1  0  0  0  0
 24 39  1  0  0  0  0
 25 26  1  0  0  0  0
 25 36  1  0  0  0  0
 25 37  1  0  0  0  0
 26 27  1  0  0  0  0
 27 28  1  0  0  0  0
 27 34  1  0  0  0  0
 27 35  1  0  0  0  0
 28 29  1  0  0  0  0
 28 33  1  6  0  0  0
 29 30  1  0  0  0  0
 29 31  1  0  0  0  0
 29 32  1  0  0  0  0
M  END
>  <MODEL>
      10

$$$$
best_conformers_56.pdb
 OpenBabel02042510453D

 41 43  0  0  1  0  0  0  0  0999 V2000
    8.2890    0.8110   20.9280 O   0  0  0  0  0  0  0  0  0  0  0  0
    7.5940    0.1280   21.6580 C   0  0  0  0  0  0  0  0  0  0  0  0
    6.5160   -0.7900   21.0430 C   0  0  0  0  0  0  0  0  0  0  0  0
    5.8200   -0.1670   19.8560 C   0  0  0  0  0  0  0  0  0  0  0  0
    6.2510   -0.4380   18.5820 C   0  0  0  0  0  0  0  0  0  0  0  0
    5.7700    0.1320   17.4440 N   0  0  0  0  0  0  0  0  0  0  0  0
    4.8000    1.0030   17.5860 C   0  0  0  0  0  0  0  0  0  0  0  0
    4.2270    1.3660   18.8370 C   0  0  0  0  0  0  0  0  0  0  0  0
    3.1840    2.3220   18.9360 C   0  0  0  0  0  0  0  0  0  0  0  0
    2.6640    2.6540   20.1580 C   0  0  0  0  0  0  0  0  0  0  0  0
    3.1660    2.0460   21.3290 C   0  0  0  0  0  0  0  0  0  0  0  0
    4.1820    1.1260   21.2600 C   0  0  0  0  0  0  0  0  0  0  0  0
    4.7440    0.7590   20.0070 C   0  0  0  0  0  0  0  0  0  0  0  0
    4.5710    0.6880   22.1740 H   0  0  0  0  0  0  0  0  0  0  0  0
    2.7410    2.3190   22.2930 H   0  0  0  0  0  0  0  0  0  0  0  0
    1.8680    3.3900   20.2370 H   0  0  0  0  0  0  0  0  0  0  0  0
    2.8190    2.7890   18.0240 H   0  0  0  0  0  0  0  0  0  0  0  0
    4.4100    1.4640   16.6780 H   0  0  0  0  0  0  0  0  0  0  0  0
    7.0440   -1.1660   18.4160 H   0  0  0  0  0  0  0  0  0  0  0  0
    7.0400   -1.6970   20.7110 H   0  0  0  0  0  0  0  0  0  0  0  0
    5.7970   -1.0880   21.8150 H   0  0  0  0  0  0  0  0  0  0  0  0
    7.7200    0.1120   23.0410 N   0  0  0  0  0  0  0  0  0  0  0  0
    7.6140   -1.1140   23.8290 C   0  0  0  0  0  0  0  0  0  0  0  0
    8.8740   -1.4420   24.6600 C   0  0  0  0  0  0  0  0  0  0  0  0
   10.2110   -1.1380   23.9630 C   0  0  0  0  0  0  0  0  0  0  0  0
   10.9070    0.4970   24.2900 S   0  0  0  0  0  0  0  0  0  0  0  0
    9.7240    1.5790   23.4430 C   0  0  0  0  0  0  0  0  0  0  0  0
    8.2420    1.2840   23.7200 C   0  0  1  0  0  0  0  0  0  0  0  0
    7.3760    2.5080   23.4160 C   0  0  0  0  0  0  0  0  0  0  0  0
    6.0780    2.2150   23.5920 F   0  0  0  0  0  0  0  0  0  0  0  0
    7.5100    3.0050   22.1860 F   0  0  0  0  0  0  0  0  0  0  0  0
    7.6960    3.4900   24.2820 F   0  0  0  0  0  0  0  0  0  0  0  0
    8.0740    1.1070   24.7900 H   0  0  0  0  0  0  0  0  0  0  0  0
    9.8860    1.5430   22.3610 H   0  0  0  0  0  0  0  0  0  0  0  0
    9.9650    2.5770   23.8210 H   0  0  0  0  0  0  0  0  0  0  0  0
   10.1140   -1.2680   22.8810 H   0  0  0  0  0  0  0  0  0  0  0  0
   10.9820   -1.8330   24.3140 H   0  0  0  0  0  0  0  0  0  0  0  0
    8.8300   -0.9440   25.6400 H   0  0  0  0  0  0  0  0  0  0  0  0
    8.8180   -2.5150   24.8750 H   0  0  0  0  0  0  0  0  0  0  0  0
    7.4270   -1.9140   23.1040 H   0  0  0  0  0  0  0  0  0  0  0  0
    6.7450   -1.0690   24.5070 H   0  0  0  0  0  0  0  0  0  0  0  0
  1  2  2  0  0  0  0
  2  3  1  0  0  0  0
  2 22  1  0  0  0  0
  3  4  1  0  0  0  0
  3 20  1  0  0  0  0
  3 21  1  0  0  0  0
  4  5  2  0  0  0  0
  4 13  1  0  0  0  0
  5  6  1  0  0  0  0
  5 19  1  0  0  0  0
  6  7  2  0  0  0  0
  7  8  1  0  0  0  0
  7 18  1  0  0  0  0
  8  9  2  0  0  0  0
  8 13  1  0  0  0  0
  9 10  1  0  0  0  0
  9 17  1  0  0  0  0
 10 11  2  0  0  0  0
 10 16  1  0  0  0  0
 11 12  1  0  0  0  0
 11 15  1  0  0  0  0
 12 13  2  0  0  0  0
 12 14  1  0  0  0  0
 22 23  1  0  0  0  0
 22 28  1  0  0  0  0
 23 24  1  0  0  0  0
 23 40  1  0  0  0  0
 23 41  1  0  0  0  0
 24 25  1  0  0  0  0
 24 38  1  0  0  0  0
 24 39  1  0  0  0  0
 25 26  1  0  0  0  0
 25 36  1  0  0  0  0
 25 37  1  0  0  0  0
 26 27  1  0  0  0  0
 27 28  1  0  0  0  0
 27 34  1  0  0  0  0
 27 35  1  0  0  0  0
 28 29  1  0  0  0  0
 28 33  1  1  0  0  0
 29 30  1  0  0  0  0
 29 31  1  0  0  0  0
 29 32  1  0  0  0  0
M  END
>  <MODEL>
      11

$$$$
best_conformers_56.pdb
 OpenBabel02042510453D

 41 43  0  0  1  0  0  0  0  0999 V2000
    7.7900    1.1670   21.3780 O   0  0  0  0  0  0  0  0  0  0  0  0
    7.3910    0.1280   21.8700 C   0  0  0  0  0  0  0  0  0  0  0  0
    6.4770   -0.8280   21.0570 C   0  0  0  0  0  0  0  0  0  0  0  0
    5.8250   -0.1660   19.8650 C   0  0  0  0  0  0  0  0  0  0  0  0
    6.2500   -0.4380   18.5900 C   0  0  0  0  0  0  0  0  0  0  0  0
    5.7710    0.1340   17.4520 N   0  0  0  0  0  0  0  0  0  0  0  0
    4.8000    1.0070   17.5910 C   0  0  0  0  0  0  0  0  0  0  0  0
    4.2360    1.3730   18.8420 C   0  0  0  0  0  0  0  0  0  0  0  0
    3.1850    2.3220   18.9440 C   0  0  0  0  0  0  0  0  0  0  0  0
    2.6590    2.6560   20.1620 C   0  0  0  0  0  0  0  0  0  0  0  0
    3.1700    2.0530   21.3390 C   0  0  0  0  0  0  0  0  0  0  0  0
    4.1910    1.1370   21.2650 C   0  0  0  0  0  0  0  0  0  0  0  0
    4.7560    0.7720   20.0140 C   0  0  0  0  0  0  0  0  0  0  0  0
    4.5780    0.6880   22.1750 H   0  0  0  0  0  0  0  0  0  0  0  0
    2.7510    2.3250   22.3020 H   0  0  0  0  0  0  0  0  0  0  0  0
    1.8600    3.3870   20.2400 H   0  0  0  0  0  0  0  0  0  0  0  0
    2.8130    2.7830   18.0310 H   0  0  0  0  0  0  0  0  0  0  0  0
    4.4070    1.4690   16.6830 H   0  0  0  0  0  0  0  0  0  0  0  0
    7.0390   -1.1680   18.4130 H   0  0  0  0  0  0  0  0  0  0  0  0
    7.1110   -1.6490   20.6940 H   0  0  0  0  0  0  0  0  0  0  0  0
    5.7280   -1.2960   21.7090 H   0  0  0  0  0  0  0  0  0  0  0  0
    7.7540   -0.2330   23.1560 N   0  0  0  0  0  0  0  0  0  0  0  0
    7.3600   -1.4850   23.7960 C   0  0  0  0  0  0  0  0  0  0  0  0
    6.0050   -1.4200   24.5160 C   0  0  0  0  0  0  0  0  0  0  0  0
    6.0390   -0.7120   25.8730 C   0  0  0  0  0  0  0  0  0  0  0  0
    6.5090    1.0360   25.8260 S   0  0  0  0  0  0  0  0  0  0  0  0
    8.2580    0.8180   25.3840 C   0  0  0  0  0  0  0  0  0  0  0  0
    8.5780    0.7250   23.8840 C   0  0  1  0  0  0  0  0  0  0  0  0
   10.0590    0.4140   23.6170 C   0  0  0  0  0  0  0  0  0  0  0  0
   10.8810    1.3530   24.1120 F   0  0  0  0  0  0  0  0  0  0  0  0
   10.3920   -0.7650   24.1900 F   0  0  0  0  0  0  0  0  0  0  0  0
   10.2910    0.3270   22.3050 F   0  0  0  0  0  0  0  0  0  0  0  0
    8.3910    1.6930   23.4090 H   0  0  0  0  0  0  0  0  0  0  0  0
    8.7360    1.7090   25.7830 H   0  0  0  0  0  0  0  0  0  0  0  0
    8.6450   -0.0480   25.9350 H   0  0  0  0  0  0  0  0  0  0  0  0
    6.7450   -1.2170   26.5470 H   0  0  0  0  0  0  0  0  0  0  0  0
    5.0530   -0.7400   26.3490 H   0  0  0  0  0  0  0  0  0  0  0  0
    5.2680   -0.9220   23.8700 H   0  0  0  0  0  0  0  0  0  0  0  0
    5.6520   -2.4480   24.6820 H   0  0  0  0  0  0  0  0  0  0  0  0
    7.3460   -2.2620   23.0220 H   0  0  0  0  0  0  0  0  0  0  0  0
    8.1580   -1.7510   24.4980 H   0  0  0  0  0  0  0  0  0  0  0  0
  1  2  2  0  0  0  0
  2  3  1  0  0  0  0
  2 22  1  0  0  0  0
  3  4  1  0  0  0  0
  3 20  1  0  0  0  0
  3 21  1  0  0  0  0
  4  5  2  0  0  0  0
  4 13  1  0  0  0  0
  5  6  1  0  0  0  0
  5 19  1  0  0  0  0
  6  7  2  0  0  0  0
  7  8  1  0  0  0  0
  7 18  1  0  0  0  0
  8  9  2  0  0  0  0
  8 13  1  0  0  0  0
  9 10  1  0  0  0  0
  9 17  1  0  0  0  0
 10 11  2  0  0  0  0
 10 16  1  0  0  0  0
 11 12  1  0  0  0  0
 11 15  1  0  0  0  0
 12 13  2  0  0  0  0
 12 14  1  0  0  0  0
 22 23  1  0  0  0  0
 22 28  1  0  0  0  0
 23 24  1  0  0  0  0
 23 40  1  0  0  0  0
 23 41  1  0  0  0  0
 24 25  1  0  0  0  0
 24 38  1  0  0  0  0
 24 39  1  0  0  0  0
 25 26  1  0  0  0  0
 25 36  1  0  0  0  0
 25 37  1  0  0  0  0
 26 27  1  0  0  0  0
 27 28  1  0  0  0  0
 27 34  1  0  0  0  0
 27 35  1  0  0  0  0
 28 29  1  0  0  0  0
 28 33  1  6  0  0  0
 29 30  1  0  0  0  0
 29 31  1  0  0  0  0
 29 32  1  0  0  0  0
M  END
>  <MODEL>
      12

$$$$
best_conformers_56.pdb
 OpenBabel02042510453D

 41 43  0  0  1  0  0  0  0  0999 V2000
    7.7890    1.1670   21.3780 O   0  0  0  0  0  0  0  0  0  0  0  0
    7.3910    0.1280   21.8700 C   0  0  0  0  0  0  0  0  0  0  0  0
    6.4770   -0.8270   21.0570 C   0  0  0  0  0  0  0  0  0  0  0  0
    5.8250   -0.1660   19.8650 C   0  0  0  0  0  0  0  0  0  0  0  0
    6.2500   -0.4380   18.5900 C   0  0  0  0  0  0  0  0  0  0  0  0
    5.7710    0.1340   17.4520 N   0  0  0  0  0  0  0  0  0  0  0  0
    4.8000    1.0070   17.5910 C   0  0  0  0  0  0  0  0  0  0  0  0
    4.2360    1.3730   18.8420 C   0  0  0  0  0  0  0  0  0  0  0  0
    3.1850    2.3220   18.9440 C   0  0  0  0  0  0  0  0  0  0  0  0
    2.6590    2.6560   20.1620 C   0  0  0  0  0  0  0  0  0  0  0  0
    3.1700    2.0530   21.3390 C   0  0  0  0  0  0  0  0  0  0  0  0
    4.1910    1.1370   21.2650 C   0  0  0  0  0  0  0  0  0  0  0  0
    4.7560    0.7720   20.0140 C   0  0  0  0  0  0  0  0  0  0  0  0
    4.5780    0.6880   22.1750 H   0  0  0  0  0  0  0  0  0  0  0  0
    2.7510    2.3250   22.3020 H   0  0  0  0  0  0  0  0  0  0  0  0
    1.8600    3.3870   20.2400 H   0  0  0  0  0  0  0  0  0  0  0  0
    2.8130    2.7830   18.0310 H   0  0  0  0  0  0  0  0  0  0  0  0
    4.4070    1.4690   16.6830 H   0  0  0  0  0  0  0  0  0  0  0  0
    7.0400   -1.1680   18.4130 H   0  0  0  0  0  0  0  0  0  0  0  0
    7.1110   -1.6490   20.6940 H   0  0  0  0  0  0  0  0  0  0  0  0
    5.7280   -1.2960   21.7090 H   0  0  0  0  0  0  0  0  0  0  0  0
    7.7540   -0.2330   23.1560 N   0  0  0  0  0  0  0  0  0  0  0  0
    7.3600   -1.4850   23.7960 C   0  0  0  0  0  0  0  0  0  0  0  0
    6.0040   -1.4200   24.5160 C   0  0  0  0  0  0  0  0  0  0  0  0
    6.0390   -0.7120   25.8730 C   0  0  0  0  0  0  0  0  0  0  0  0
    6.5090    1.0360   25.8260 S   0  0  0  0  0  0  0  0  0  0  0  0
    8.2570    0.8180   25.3850 C   0  0  0  0  0  0  0  0  0  0  0  0
    8.5780    0.7250   23.8840 C   0  0  1  0  0  0  0  0  0  0  0  0
   10.0590    0.4140   23.6170 C   0  0  0  0  0  0  0  0  0  0  0  0
   10.3920   -0.7650   24.1900 F   0  0  0  0  0  0  0  0  0  0  0  0
   10.8810    1.3530   24.1110 F   0  0  0  0  0  0  0  0  0  0  0  0
   10.2910    0.3270   22.3050 F   0  0  0  0  0  0  0  0  0  0  0  0
    8.3910    1.6930   23.4100 H   0  0  0  0  0  0  0  0  0  0  0  0
    8.6440   -0.0480   25.9350 H   0  0  0  0  0  0  0  0  0  0  0  0
    8.7350    1.7100   25.7840 H   0  0  0  0  0  0  0  0  0  0  0  0
    6.7440   -1.2170   26.5470 H   0  0  0  0  0  0  0  0  0  0  0  0
    5.0530   -0.7400   26.3490 H   0  0  0  0  0  0  0  0  0  0  0  0
    5.6520   -2.4490   24.6820 H   0  0  0  0  0  0  0  0  0  0  0  0
    5.2680   -0.9220   23.8700 H   0  0  0  0  0  0  0  0  0  0  0  0
    7.3460   -2.2620   23.0220 H   0  0  0  0  0  0  0  0  0  0  0  0
    8.1580   -1.7510   24.4990 H   0  0  0  0  0  0  0  0  0  0  0  0
  1  2  2  0  0  0  0
  2  3  1  0  0  0  0
  2 22  1  0  0  0  0
  3  4  1  0  0  0  0
  3 20  1  0  0  0  0
  3 21  1  0  0  0  0
  4  5  2  0  0  0  0
  4 13  1  0  0  0  0
  5  6  1  0  0  0  0
  5 19  1  0  0  0  0
  6  7  2  0  0  0  0
  7  8  1  0  0  0  0
  7 18  1  0  0  0  0
  8  9  2  0  0  0  0
  8 13  1  0  0  0  0
  9 10  1  0  0  0  0
  9 17  1  0  0  0  0
 10 11  2  0  0  0  0
 10 16  1  0  0  0  0
 11 12  1  0  0  0  0
 11 15  1  0  0  0  0
 12 13  2  0  0  0  0
 12 14  1  0  0  0  0
 22 23  1  0  0  0  0
 22 28  1  0  0  0  0
 23 24  1  0  0  0  0
 23 40  1  0  0  0  0
 23 41  1  0  0  0  0
 24 25  1  0  0  0  0
 24 38  1  0  0  0  0
 24 39  1  0  0  0  0
 25 26  1  0  0  0  0
 25 36  1  0  0  0  0
 25 37  1  0  0  0  0
 26 27  1  0  0  0  0
 27 28  1  0  0  0  0
 27 34  1  0  0  0  0
 27 35  1  0  0  0  0
 28 29  1  0  0  0  0
 28 33  1  6  0  0  0
 29 30  1  0  0  0  0
 29 31  1  0  0  0  0
 29 32  1  0  0  0  0
M  END
>  <MODEL>
      13

$$$$
best_conformers_56.pdb
 OpenBabel02042510453D

 41 43  0  0  1  0  0  0  0  0999 V2000
    7.7890    1.1670   21.3780 O   0  0  0  0  0  0  0  0  0  0  0  0
    7.3910    0.1280   21.8700 C   0  0  0  0  0  0  0  0  0  0  0  0
    6.4770   -0.8270   21.0570 C   0  0  0  0  0  0  0  0  0  0  0  0
    5.8250   -0.1660   19.8650 C   0  0  0  0  0  0  0  0  0  0  0  0
    6.2500   -0.4380   18.5900 C   0  0  0  0  0  0  0  0  0  0  0  0
    5.7710    0.1340   17.4520 N   0  0  0  0  0  0  0  0  0  0  0  0
    4.8000    1.0070   17.5910 C   0  0  0  0  0  0  0  0  0  0  0  0
    4.2360    1.3730   18.8420 C   0  0  0  0  0  0  0  0  0  0  0  0
    3.1850    2.3220   18.9440 C   0  0  0  0  0  0  0  0  0  0  0  0
    2.6590    2.6560   20.1620 C   0  0  0  0  0  0  0  0  0  0  0  0
    3.1700    2.0530   21.3390 C   0  0  0  0  0  0  0  0  0  0  0  0
    4.1910    1.1370   21.2650 C   0  0  0  0  0  0  0  0  0  0  0  0
    4.7560    0.7720   20.0140 C   0  0  0  0  0  0  0  0  0  0  0  0
    4.5780    0.6880   22.1750 H   0  0  0  0  0  0  0  0  0  0  0  0
    2.7510    2.3250   22.3020 H   0  0  0  0  0  0  0  0  0  0  0  0
    1.8600    3.3870   20.2400 H   0  0  0  0  0  0  0  0  0  0  0  0
    2.8130    2.7830   18.0310 H   0  0  0  0  0  0  0  0  0  0  0  0
    4.4070    1.4690   16.6830 H   0  0  0  0  0  0  0  0  0  0  0  0
    7.0400   -1.1680   18.4130 H   0  0  0  0  0  0  0  0  0  0  0  0
    5.7280   -1.2960   21.7090 H   0  0  0  0  0  0  0  0  0  0  0  0
    7.1110   -1.6490   20.6940 H   0  0  0  0  0  0  0  0  0  0  0  0
    7.7540   -0.2330   23.1560 N   0  0  0  0  0  0  0  0  0  0  0  0
    7.3600   -1.4850   23.7960 C   0  0  0  0  0  0  0  0  0  0  0  0
    6.0040   -1.4200   24.5160 C   0  0  0  0  0  0  0  0  0  0  0  0
    6.0390   -0.7120   25.8730 C   0  0  0  0  0  0  0  0  0  0  0  0
    6.5090    1.0360   25.8260 S   0  0  0  0  0  0  0  0  0  0  0  0
    8.2570    0.8180   25.3850 C   0  0  0  0  0  0  0  0  0  0  0  0
    8.5780    0.7250   23.8840 C   0  0  1  0  0  0  0  0  0  0  0  0
   10.0590    0.4140   23.6170 C   0  0  0  0  0  0  0  0  0  0  0  0
   10.2910    0.3270   22.3050 F   0  0  0  0  0  0  0  0  0  0  0  0
   10.3920   -0.7640   24.1900 F   0  0  0  0  0  0  0  0  0  0  0  0
   10.8810    1.3540   24.1110 F   0  0  0  0  0  0  0  0  0  0  0  0
    8.3910    1.6930   23.4100 H   0  0  0  0  0  0  0  0  0  0  0  0
    8.7350    1.7100   25.7840 H   0  0  0  0  0  0  0  0  0  0  0  0
    8.6440   -0.0480   25.9350 H   0  0  0  0  0  0  0  0  0  0  0  0
    5.0530   -0.7400   26.3490 H   0  0  0  0  0  0  0  0  0  0  0  0
    6.7450   -1.2170   26.5470 H   0  0  0  0  0  0  0  0  0  0  0  0
    5.6520   -2.4490   24.6820 H   0  0  0  0  0  0  0  0  0  0  0  0
    5.2680   -0.9220   23.8700 H   0  0  0  0  0  0  0  0  0  0  0  0
    7.3470   -2.2620   23.0220 H   0  0  0  0  0  0  0  0  0  0  0  0
    8.1580   -1.7510   24.4980 H   0  0  0  0  0  0  0  0  0  0  0  0
  1  2  2  0  0  0  0
  2  3  1  0  0  0  0
  2 22  1  0  0  0  0
  3  4  1  0  0  0  0
  3 20  1  0  0  0  0
  3 21  1  0  0  0  0
  4  5  2  0  0  0  0
  4 13  1  0  0  0  0
  5  6  1  0  0  0  0
  5 19  1  0  0  0  0
  6  7  2  0  0  0  0
  7  8  1  0  0  0  0
  7 18  1  0  0  0  0
  8  9  2  0  0  0  0
  8 13  1  0  0  0  0
  9 10  1  0  0  0  0
  9 17  1  0  0  0  0
 10 11  2  0  0  0  0
 10 16  1  0  0  0  0
 11 12  1  0  0  0  0
 11 15  1  0  0  0  0
 12 13  2  0  0  0  0
 12 14  1  0  0  0  0
 22 23  1  0  0  0  0
 22 28  1  0  0  0  0
 23 24  1  0  0  0  0
 23 40  1  0  0  0  0
 23 41  1  0  0  0  0
 24 25  1  0  0  0  0
 24 38  1  0  0  0  0
 24 39  1  0  0  0  0
 25 26  1  0  0  0  0
 25 36  1  0  0  0  0
 25 37  1  0  0  0  0
 26 27  1  0  0  0  0
 27 28  1  0  0  0  0
 27 34  1  0  0  0  0
 27 35  1  0  0  0  0
 28 29  1  0  0  0  0
 28 33  1  6  0  0  0
 29 30  1  0  0  0  0
 29 31  1  0  0  0  0
 29 32  1  0  0  0  0
M  END
>  <MODEL>
      14

$$$$
