best_conformers_19.pdb
 OpenBabel02042510453D

 67 71  0  0  1  0  0  0  0  0999 V2000
    4.7790   -0.4140   26.9880 O   0  0  0  0  0  0  0  0  0  0  0  0
    4.4510   -0.7570   25.8620 C   0  0  0  0  0  0  0  0  0  0  0  0
    4.8910   -2.0720   25.2150 C   0  0  0  0  0  0  0  0  0  0  0  0
    5.9910   -1.8360   24.2110 N   0  3  1  0  0  0  0  0  0  0  0  0
    7.2700   -1.3130   24.9020 C   0  0  0  0  0  0  0  0  0  0  0  0
    8.4360   -1.1750   23.9490 C   0  0  0  0  0  0  0  0  0  0  0  0
    9.5080   -0.3420   24.2950 C   0  0  0  0  0  0  0  0  0  0  0  0
   10.6310   -0.2370   23.4810 C   0  0  0  0  0  0  0  0  0  0  0  0
   10.6900   -1.0020   22.3200 C   0  0  0  0  0  0  0  0  0  0  0  0
   12.1610   -0.9940   21.3810 Cl  0  0  0  0  0  0  0  0  0  0  0  0
    9.6210   -1.8040   21.9370 C   0  0  0  0  0  0  0  0  0  0  0  0
    8.4770   -1.8800   22.7420 C   0  0  0  0  0  0  0  0  0  0  0  0
    7.3050   -2.7200   22.2720 C   0  0  2  0  0  0  0  0  0  0  0  0
    6.4780   -2.1640   21.1050 C   0  0  0  0  0  0  0  0  0  0  0  0
    5.8850   -2.9110   20.3440 O   0  0  0  0  0  0  0  0  0  0  0  0
    6.3710   -0.7980   21.0110 N   0  0  0  0  0  0  0  0  0  0  0  0
    5.8140   -0.1770   19.8650 C   0  0  0  0  0  0  0  0  0  0  0  0
    6.2560   -0.4670   18.5930 C   0  0  0  0  0  0  0  0  0  0  0  0
    5.7840    0.1270   17.4670 N   0  0  0  0  0  0  0  0  0  0  0  0
    4.8120    0.9990   17.6110 C   0  0  0  0  0  0  0  0  0  0  0  0
    4.2410    1.3690   18.8600 C   0  0  0  0  0  0  0  0  0  0  0  0
    3.1840    2.3150   18.9640 C   0  0  0  0  0  0  0  0  0  0  0  0
    2.6520    2.6280   20.1850 C   0  0  0  0  0  0  0  0  0  0  0  0
    3.1490    2.0140   21.3570 C   0  0  0  0  0  0  0  0  0  0  0  0
    4.1790    1.1040   21.2850 C   0  0  0  0  0  0  0  0  0  0  0  0
    4.7510    0.7650   20.0290 C   0  0  0  0  0  0  0  0  0  0  0  0
    4.5560    0.6330   22.1850 H   0  0  0  0  0  0  0  0  0  0  0  0
    2.7080    2.2730   22.3160 H   0  0  0  0  0  0  0  0  0  0  0  0
    1.8470    3.3560   20.2580 H   0  0  0  0  0  0  0  0  0  0  0  0
    2.8180    2.7790   18.0520 H   0  0  0  0  0  0  0  0  0  0  0  0
    4.4190    1.4560   16.7030 H   0  0  0  0  0  0  0  0  0  0  0  0
    7.0460   -1.1960   18.4240 H   0  0  0  0  0  0  0  0  0  0  0  0
    6.8060   -0.2240   21.7290 H   0  0  0  0  0  0  0  0  0  0  0  0
    6.3470   -3.0710   23.4120 C   0  0  0  0  0  0  0  0  0  0  0  0
    6.8150   -3.7880   24.0930 H   0  0  0  0  0  0  0  0  0  0  0  0
    5.4530   -3.5250   22.9830 H   0  0  0  0  0  0  0  0  0  0  0  0
    7.6930   -3.6570   21.8700 H   0  0  0  0  0  0  0  0  0  0  0  0
    9.6740   -2.3720   21.0110 H   0  0  0  0  0  0  0  0  0  0  0  0
   11.4700    0.4050   23.7380 H   0  0  0  0  0  0  0  0  0  0  0  0
    9.4720    0.2290   25.2220 H   0  0  0  0  0  0  0  0  0  0  0  0
    7.5130   -2.0130   25.7120 H   0  0  0  0  0  0  0  0  0  0  0  0
    7.0530   -0.3500   25.3660 H   0  0  0  0  0  0  0  0  0  0  0  0
    5.6820   -1.1130   23.5240 H   0  0  0  0  0  0  0  0  0  0  0  0
    5.2480   -2.7190   26.0170 H   0  0  0  0  0  0  0  0  0  0  0  0
    4.0660   -2.5780   24.7000 H   0  0  0  0  0  0  0  0  0  0  0  0
    3.7150    0.0360   25.0440 N   0  0  0  0  0  0  0  0  0  0  0  0
    3.5420    1.4380   25.3800 C   0  0  0  0  0  0  0  0  0  0  0  0
    4.8380    2.2430   25.1580 C   0  0  0  0  0  0  0  0  0  0  0  0
    4.6610    3.7260   25.3700 C   0  0  0  0  0  0  0  0  0  0  0  0
    4.3210    4.5650   24.3060 C   0  0  0  0  0  0  0  0  0  0  0  0
    4.1320    5.9290   24.5100 C   0  0  0  0  0  0  0  0  0  0  0  0
    4.2740    6.4770   25.7800 C   0  0  0  0  0  0  0  0  0  0  0  0
    4.0810    7.9450   25.9960 C   0  0  0  0  0  0  0  0  0  0  0  0
    3.0650    8.1620   26.8820 F   0  0  0  0  0  0  0  0  0  0  0  0
    5.2040    8.4940   26.5470 F   0  0  0  0  0  0  0  0  0  0  0  0
    3.8530    8.4820   25.0680 H   0  0  0  0  0  0  0  0  0  0  0  0
    4.5980    5.6470   26.8510 C   0  0  0  0  0  0  0  0  0  0  0  0
    4.7870    4.2840   26.6460 C   0  0  0  0  0  0  0  0  0  0  0  0
    5.0370    3.6410   27.4880 H   0  0  0  0  0  0  0  0  0  0  0  0
    4.7010    6.0790   27.8410 H   0  0  0  0  0  0  0  0  0  0  0  0
    3.8750    6.5740   23.6720 H   0  0  0  0  0  0  0  0  0  0  0  0
    4.2150    4.1490   23.3030 H   0  0  0  0  0  0  0  0  0  0  0  0
    5.6050    1.8470   25.8410 H   0  0  0  0  0  0  0  0  0  0  0  0
    5.1840    2.0560   24.1300 H   0  0  0  0  0  0  0  0  0  0  0  0
    2.7390    1.8260   24.7470 H   0  0  0  0  0  0  0  0  0  0  0  0
    3.2450    1.5020   26.4340 H   0  0  0  0  0  0  0  0  0  0  0  0
    3.3820   -0.3370   24.1690 H   0  0  0  0  0  0  0  0  0  0  0  0
  1  2  2  0  0  0  0
  2  3  1  0  0  0  0
  2 46  1  0  0  0  0
  3  4  1  0  0  0  0
  3 44  1  0  0  0  0
  3 45  1  0  0  0  0
  4  5  1  0  0  0  0
  4 34  1  0  0  0  0
  4 43  1  6  0  0  0
  5  6  1  0  0  0  0
  5 41  1  0  0  0  0
  5 42  1  0  0  0  0
  6  7  2  0  0  0  0
  6 12  1  0  0  0  0
  7  8  1  0  0  0  0
  7 40  1  0  0  0  0
  8  9  2  0  0  0  0
  8 39  1  0  0  0  0
  9 10  1  0  0  0  0
  9 11  1  0  0  0  0
 11 12  2  0  0  0  0
 11 38  1  0  0  0  0
 12 13  1  0  0  0  0
 13 14  1  0  0  0  0
 13 34  1  0  0  0  0
 13 37  1  6  0  0  0
 14 15  2  0  0  0  0
 14 16  1  0  0  0  0
 16 17  1  0  0  0  0
 16 33  1  0  0  0  0
 17 18  2  0  0  0  0
 17 26  1  0  0  0  0
 18 19  1  0  0  0  0
 18 32  1  0  0  0  0
 19 20  2  0  0  0  0
 20 21  1  0  0  0  0
 20 31  1  0  0  0  0
 21 22  2  0  0  0  0
 21 26  1  0  0  0  0
 22 23  1  0  0  0  0
 22 30  1  0  0  0  0
 23 24  2  0  0  0  0
 23 29  1  0  0  0  0
 24 25  1  0  0  0  0
 24 28  1  0  0  0  0
 25 26  2  0  0  0  0
 25 27  1  0  0  0  0
 34 35  1  0  0  0  0
 34 36  1  0  0  0  0
 46 47  1  0  0  0  0
 46 67  1  0  0  0  0
 47 48  1  0  0  0  0
 47 65  1  0  0  0  0
 47 66  1  0  0  0  0
 48 49  1  0  0  0  0
 48 63  1  0  0  0  0
 48 64  1  0  0  0  0
 49 50  2  0  0  0  0
 49 58  1  0  0  0  0
 50 51  1  0  0  0  0
 50 62  1  0  0  0  0
 51 52  2  0  0  0  0
 51 61  1  0  0  0  0
 52 53  1  0  0  0  0
 52 57  1  0  0  0  0
 53 54  1  0  0  0  0
 53 55  1  0  0  0  0
 53 56  1  0  0  0  0
 57 58  2  0  0  0  0
 57 60  1  0  0  0  0
 58 59  1  0  0  0  0
M  CHG  1   4   1
M  END
>  <MODEL>
       1

$$$$
best_conformers_19.pdb
 OpenBabel02042510453D

 67 71  0  0  1  0  0  0  0  0999 V2000
    5.4120   -5.8480   21.7190 O   0  0  0  0  0  0  0  0  0  0  0  0
    6.2180   -5.9290   22.6350 C   0  0  0  0  0  0  0  0  0  0  0  0
    7.5480   -5.1870   22.5710 C   0  0  0  0  0  0  0  0  0  0  0  0
    7.3300   -3.7170   22.7530 N   0  3  1  0  0  0  0  0  0  0  0  0
    6.8310   -3.3970   24.1830 C   0  0  0  0  0  0  0  0  0  0  0  0
    6.7110   -1.9170   24.4490 C   0  0  0  0  0  0  0  0  0  0  0  0
    5.8670   -1.4720   25.4690 C   0  0  0  0  0  0  0  0  0  0  0  0
    5.7520   -0.1220   25.7770 C   0  0  0  0  0  0  0  0  0  0  0  0
    6.5070    0.7940   25.0500 C   0  0  0  0  0  0  0  0  0  0  0  0
    6.3700    2.4960   25.4090 Cl  0  0  0  0  0  0  0  0  0  0  0  0
    7.3510    0.3760   24.0300 C   0  0  0  0  0  0  0  0  0  0  0  0
    7.4410   -0.9850   23.7140 C   0  0  0  0  0  0  0  0  0  0  0  0
    8.2760   -1.3930   22.5250 C   0  0  2  0  0  0  0  0  0  0  0  0
    7.7680   -0.8690   21.1780 C   0  0  0  0  0  0  0  0  0  0  0  0
    8.5680   -0.4940   20.3370 O   0  0  0  0  0  0  0  0  0  0  0  0
    6.4100   -0.8410   20.9660 N   0  0  0  0  0  0  0  0  0  0  0  0
    5.8190   -0.1930   19.8520 C   0  0  0  0  0  0  0  0  0  0  0  0
    6.2570   -0.4670   18.5760 C   0  0  0  0  0  0  0  0  0  0  0  0
    5.7660    0.1140   17.4540 N   0  0  0  0  0  0  0  0  0  0  0  0
    4.8010    0.9950   17.6020 C   0  0  0  0  0  0  0  0  0  0  0  0
    4.2380    1.3620   18.8550 C   0  0  0  0  0  0  0  0  0  0  0  0
    3.1920    2.3200   18.9540 C   0  0  0  0  0  0  0  0  0  0  0  0
    2.6770    2.6600   20.1790 C   0  0  0  0  0  0  0  0  0  0  0  0
    3.1950    2.0650   21.3490 C   0  0  0  0  0  0  0  0  0  0  0  0
    4.2110    1.1420   21.2780 C   0  0  0  0  0  0  0  0  0  0  0  0
    4.7540    0.7560   20.0220 C   0  0  0  0  0  0  0  0  0  0  0  0
    4.6150    0.7150   22.1900 H   0  0  0  0  0  0  0  0  0  0  0  0
    2.7830    2.3470   22.3160 H   0  0  0  0  0  0  0  0  0  0  0  0
    1.8780    3.3960   20.2530 H   0  0  0  0  0  0  0  0  0  0  0  0
    2.8200    2.7770   18.0420 H   0  0  0  0  0  0  0  0  0  0  0  0
    4.4150    1.4640   16.6990 H   0  0  0  0  0  0  0  0  0  0  0  0
    7.0470   -1.1960   18.4180 H   0  0  0  0  0  0  0  0  0  0  0  0
    5.8270   -1.1350   21.7410 H   0  0  0  0  0  0  0  0  0  0  0  0
    8.5730   -2.8940   22.4790 C   0  0  0  0  0  0  0  0  0  0  0  0
    9.0030   -3.1520   21.5100 H   0  0  0  0  0  0  0  0  0  0  0  0
    9.3110   -3.1440   23.2480 H   0  0  0  0  0  0  0  0  0  0  0  0
    9.2430   -0.8950   22.5910 H   0  0  0  0  0  0  0  0  0  0  0  0
    7.9240    1.1070   23.4650 H   0  0  0  0  0  0  0  0  0  0  0  0
    5.0960    0.2250   26.5700 H   0  0  0  0  0  0  0  0  0  0  0  0
    5.2840   -2.1990   26.0310 H   0  0  0  0  0  0  0  0  0  0  0  0
    5.8610   -3.8740   24.3230 H   0  0  0  0  0  0  0  0  0  0  0  0
    7.5400   -3.8600   24.8800 H   0  0  0  0  0  0  0  0  0  0  0  0
    6.6030   -3.4270   22.0590 H   0  0  0  0  0  0  0  0  0  0  0  0
    7.9520   -5.3500   21.5730 H   0  0  0  0  0  0  0  0  0  0  0  0
    8.2670   -5.5470   23.3200 H   0  0  0  0  0  0  0  0  0  0  0  0
    5.9860   -6.6390   23.7700 N   0  0  0  0  0  0  0  0  0  0  0  0
    4.6870   -7.2440   24.0080 C   0  0  0  0  0  0  0  0  0  0  0  0
    3.5740   -6.2260   24.3250 C   0  0  0  0  0  0  0  0  0  0  0  0
    2.2440   -6.8970   24.5800 C   0  0  0  0  0  0  0  0  0  0  0  0
    1.9170   -7.3640   25.8550 C   0  0  0  0  0  0  0  0  0  0  0  0
    0.7120   -8.0220   26.0850 C   0  0  0  0  0  0  0  0  0  0  0  0
   -0.1850   -8.2330   25.0430 C   0  0  0  0  0  0  0  0  0  0  0  0
   -1.4820   -8.9410   25.2880 C   0  0  0  0  0  0  0  0  0  0  0  0
   -1.5740  -10.0480   24.4950 F   0  0  0  0  0  0  0  0  0  0  0  0
   -2.5320   -8.1340   24.9540 F   0  0  0  0  0  0  0  0  0  0  0  0
   -1.6040   -9.2520   26.3330 H   0  0  0  0  0  0  0  0  0  0  0  0
    0.1360   -7.7810   23.7660 C   0  0  0  0  0  0  0  0  0  0  0  0
    1.3400   -7.1220   23.5390 C   0  0  0  0  0  0  0  0  0  0  0  0
    1.5810   -6.7770   22.5350 H   0  0  0  0  0  0  0  0  0  0  0  0
   -0.5650   -7.9510   22.9540 H   0  0  0  0  0  0  0  0  0  0  0  0
    0.4680   -8.3780   27.0850 H   0  0  0  0  0  0  0  0  0  0  0  0
    2.6140   -7.2110   26.6770 H   0  0  0  0  0  0  0  0  0  0  0  0
    3.8680   -5.6370   25.2060 H   0  0  0  0  0  0  0  0  0  0  0  0
    3.4940   -5.5390   23.4720 H   0  0  0  0  0  0  0  0  0  0  0  0
    4.7990   -7.9490   24.8370 H   0  0  0  0  0  0  0  0  0  0  0  0
    4.4040   -7.7930   23.1050 H   0  0  0  0  0  0  0  0  0  0  0  0
    6.6880   -6.6290   24.4970 H   0  0  0  0  0  0  0  0  0  0  0  0
  1  2  2  0  0  0  0
  2  3  1  0  0  0  0
  2 46  1  0  0  0  0
  3  4  1  0  0  0  0
  3 44  1  0  0  0  0
  3 45  1  0  0  0  0
  4  5  1  0  0  0  0
  4 34  1  0  0  0  0
  4 43  1  6  0  0  0
  5  6  1  0  0  0  0
  5 41  1  0  0  0  0
  5 42  1  0  0  0  0
  6  7  2  0  0  0  0
  6 12  1  0  0  0  0
  7  8  1  0  0  0  0
  7 40  1  0  0  0  0
  8  9  2  0  0  0  0
  8 39  1  0  0  0  0
  9 10  1  0  0  0  0
  9 11  1  0  0  0  0
 11 12  2  0  0  0  0
 11 38  1  0  0  0  0
 12 13  1  0  0  0  0
 13 14  1  0  0  0  0
 13 34  1  0  0  0  0
 13 37  1  1  0  0  0
 14 15  2  0  0  0  0
 14 16  1  0  0  0  0
 16 17  1  0  0  0  0
 16 33  1  0  0  0  0
 17 18  2  0  0  0  0
 17 26  1  0  0  0  0
 18 19  1  0  0  0  0
 18 32  1  0  0  0  0
 19 20  2  0  0  0  0
 20 21  1  0  0  0  0
 20 31  1  0  0  0  0
 21 22  2  0  0  0  0
 21 26  1  0  0  0  0
 22 23  1  0  0  0  0
 22 30  1  0  0  0  0
 23 24  2  0  0  0  0
 23 29  1  0  0  0  0
 24 25  1  0  0  0  0
 24 28  1  0  0  0  0
 25 26  2  0  0  0  0
 25 27  1  0  0  0  0
 34 35  1  0  0  0  0
 34 36  1  0  0  0  0
 46 47  1  0  0  0  0
 46 67  1  0  0  0  0
 47 48  1  0  0  0  0
 47 65  1  0  0  0  0
 47 66  1  0  0  0  0
 48 49  1  0  0  0  0
 48 63  1  0  0  0  0
 48 64  1  0  0  0  0
 49 50  2  0  0  0  0
 49 58  1  0  0  0  0
 50 51  1  0  0  0  0
 50 62  1  0  0  0  0
 51 52  2  0  0  0  0
 51 61  1  0  0  0  0
 52 53  1  0  0  0  0
 52 57  1  0  0  0  0
 53 54  1  0  0  0  0
 53 55  1  0  0  0  0
 53 56  1  0  0  0  0
 57 58  2  0  0  0  0
 57 60  1  0  0  0  0
 58 59  1  0  0  0  0
M  CHG  1   4   1
M  END
>  <MODEL>
       2

$$$$
best_conformers_19.pdb
 OpenBabel02042510453D

 67 71  0  0  1  0  0  0  0  0999 V2000
    5.7410   -5.7210   20.7590 O   0  0  0  0  0  0  0  0  0  0  0  0
    6.4760   -5.7070   21.7340 C   0  0  0  0  0  0  0  0  0  0  0  0
    7.7580   -4.8840   21.8420 C   0  0  0  0  0  0  0  0  0  0  0  0
    7.4800   -3.5150   22.3170 N   0  3  1  0  0  0  0  0  0  0  0  0
    6.8800   -3.5690   23.7300 C   0  0  0  0  0  0  0  0  0  0  0  0
    6.6170   -2.1950   24.2560 C   0  0  0  0  0  0  0  0  0  0  0  0
    5.7120   -2.0120   25.2990 C   0  0  0  0  0  0  0  0  0  0  0  0
    5.4870   -0.7520   25.8350 C   0  0  0  0  0  0  0  0  0  0  0  0
    6.1870    0.3340   25.3170 C   0  0  0  0  0  0  0  0  0  0  0  0
    5.9440    1.9250   25.9820 Cl  0  0  0  0  0  0  0  0  0  0  0  0
    7.0900    0.1680   24.2750 C   0  0  0  0  0  0  0  0  0  0  0  0
    7.3080   -1.1050   23.7410 C   0  0  0  0  0  0  0  0  0  0  0  0
    8.2570   -1.2390   22.5830 C   0  0  2  0  0  0  0  0  0  0  0  0
    7.7150   -0.7530   21.2460 C   0  0  0  0  0  0  0  0  0  0  0  0
    8.4710   -0.2880   20.4120 O   0  0  0  0  0  0  0  0  0  0  0  0
    6.3720   -0.9510   20.9820 N   0  0  0  0  0  0  0  0  0  0  0  0
    5.8090   -0.2810   19.8670 C   0  0  0  0  0  0  0  0  0  0  0  0
    6.3100   -0.5050   18.6120 C   0  0  0  0  0  0  0  0  0  0  0  0
    5.8370    0.0710   17.4800 N   0  0  0  0  0  0  0  0  0  0  0  0
    4.8430    0.9210   17.6120 C   0  0  0  0  0  0  0  0  0  0  0  0
    4.2610    1.2810   18.8590 C   0  0  0  0  0  0  0  0  0  0  0  0
    3.2310    2.2540   18.9480 C   0  0  0  0  0  0  0  0  0  0  0  0
    2.7180    2.6090   20.1650 C   0  0  0  0  0  0  0  0  0  0  0  0
    3.2190    2.0180   21.3480 C   0  0  0  0  0  0  0  0  0  0  0  0
    4.2200    1.0790   21.2880 C   0  0  0  0  0  0  0  0  0  0  0  0
    4.7520    0.6710   20.0360 C   0  0  0  0  0  0  0  0  0  0  0  0
    4.6230    0.6740   22.2140 H   0  0  0  0  0  0  0  0  0  0  0  0
    2.8110    2.3180   22.3110 H   0  0  0  0  0  0  0  0  0  0  0  0
    1.9340    3.3600   20.2330 H   0  0  0  0  0  0  0  0  0  0  0  0
    2.8830    2.7200   18.0290 H   0  0  0  0  0  0  0  0  0  0  0  0
    4.4550    1.3870   16.7060 H   0  0  0  0  0  0  0  0  0  0  0  0
    7.1550   -1.1750   18.4790 H   0  0  0  0  0  0  0  0  0  0  0  0
    5.7660   -1.0480   21.7850 H   0  0  0  0  0  0  0  0  0  0  0  0
    8.7150   -2.6680   22.3470 C   0  0  0  0  0  0  0  0  0  0  0  0
    9.2510   -2.7350   21.3970 H   0  0  0  0  0  0  0  0  0  0  0  0
    9.3790   -3.0170   23.1420 H   0  0  0  0  0  0  0  0  0  0  0  0
    9.1300   -0.6220   22.7660 H   0  0  0  0  0  0  0  0  0  0  0  0
    7.6240    1.0220   23.8660 H   0  0  0  0  0  0  0  0  0  0  0  0
    4.7920   -0.6180   26.6570 H   0  0  0  0  0  0  0  0  0  0  0  0
    5.1880   -2.8720   25.7080 H   0  0  0  0  0  0  0  0  0  0  0  0
    5.9590   -4.1470   23.6980 H   0  0  0  0  0  0  0  0  0  0  0  0
    7.5970   -4.0920   24.3790 H   0  0  0  0  0  0  0  0  0  0  0  0
    6.7910   -3.0730   21.6570 H   0  0  0  0  0  0  0  0  0  0  0  0
    8.2710   -4.8650   20.8810 H   0  0  0  0  0  0  0  0  0  0  0  0
    8.4260   -5.3580   22.5750 H   0  0  0  0  0  0  0  0  0  0  0  0
    6.2040   -6.4030   22.8770 N   0  0  0  0  0  0  0  0  0  0  0  0
    5.1140   -7.3460   22.9130 C   0  0  0  0  0  0  0  0  0  0  0  0
    3.7400   -6.7530   23.2440 C   0  0  0  0  0  0  0  0  0  0  0  0
    2.6770   -7.8240   23.2100 C   0  0  0  0  0  0  0  0  0  0  0  0
    2.4120   -8.5480   24.3750 C   0  0  0  0  0  0  0  0  0  0  0  0
    1.3750   -9.4680   24.4130 C   0  0  0  0  0  0  0  0  0  0  0  0
    0.5870   -9.6740   23.2870 C   0  0  0  0  0  0  0  0  0  0  0  0
   -0.5700  -10.6180   23.3980 C   0  0  0  0  0  0  0  0  0  0  0  0
   -0.1560  -11.8970   23.1570 F   0  0  0  0  0  0  0  0  0  0  0  0
   -1.5330  -10.3100   22.4820 F   0  0  0  0  0  0  0  0  0  0  0  0
   -1.0190  -10.6020   24.4000 H   0  0  0  0  0  0  0  0  0  0  0  0
    0.9320   -9.0660   22.0840 C   0  0  0  0  0  0  0  0  0  0  0  0
    1.9770   -8.1480   22.0440 C   0  0  0  0  0  0  0  0  0  0  0  0
    2.2140   -7.6580   21.1000 H   0  0  0  0  0  0  0  0  0  0  0  0
    0.3810   -9.3200   21.1850 H   0  0  0  0  0  0  0  0  0  0  0  0
    1.1690  -10.0360   25.3150 H   0  0  0  0  0  0  0  0  0  0  0  0
    3.0050   -8.3570   25.2690 H   0  0  0  0  0  0  0  0  0  0  0  0
    3.5180   -5.9530   22.5220 H   0  0  0  0  0  0  0  0  0  0  0  0
    3.7380   -6.3210   24.2510 H   0  0  0  0  0  0  0  0  0  0  0  0
    5.0390   -7.7340   21.8970 H   0  0  0  0  0  0  0  0  0  0  0  0
    5.3730   -8.1290   23.6370 H   0  0  0  0  0  0  0  0  0  0  0  0
    6.9170   -6.4610   23.5830 H   0  0  0  0  0  0  0  0  0  0  0  0
  1  2  2  0  0  0  0
  2  3  1  0  0  0  0
  2 46  1  0  0  0  0
  3  4  1  0  0  0  0
  3 44  1  0  0  0  0
  3 45  1  0  0  0  0
  4  5  1  0  0  0  0
  4 34  1  0  0  0  0
  4 43  1  6  0  0  0
  5  6  1  0  0  0  0
  5 41  1  0  0  0  0
  5 42  1  0  0  0  0
  6  7  2  0  0  0  0
  6 12  1  0  0  0  0
  7  8  1  0  0  0  0
  7 40  1  0  0  0  0
  8  9  2  0  0  0  0
  8 39  1  0  0  0  0
  9 10  1  0  0  0  0
  9 11  1  0  0  0  0
 11 12  2  0  0  0  0
 11 38  1  0  0  0  0
 12 13  1  0  0  0  0
 13 14  1  0  0  0  0
 13 34  1  0  0  0  0
 13 37  1  1  0  0  0
 14 15  2  0  0  0  0
 14 16  1  0  0  0  0
 16 17  1  0  0  0  0
 16 33  1  0  0  0  0
 17 18  2  0  0  0  0
 17 26  1  0  0  0  0
 18 19  1  0  0  0  0
 18 32  1  0  0  0  0
 19 20  2  0  0  0  0
 20 21  1  0  0  0  0
 20 31  1  0  0  0  0
 21 22  2  0  0  0  0
 21 26  1  0  0  0  0
 22 23  1  0  0  0  0
 22 30  1  0  0  0  0
 23 24  2  0  0  0  0
 23 29  1  0  0  0  0
 24 25  1  0  0  0  0
 24 28  1  0  0  0  0
 25 26  2  0  0  0  0
 25 27  1  0  0  0  0
 34 35  1  0  0  0  0
 34 36  1  0  0  0  0
 46 47  1  0  0  0  0
 46 67  1  0  0  0  0
 47 48  1  0  0  0  0
 47 65  1  0  0  0  0
 47 66  1  0  0  0  0
 48 49  1  0  0  0  0
 48 63  1  0  0  0  0
 48 64  1  0  0  0  0
 49 50  2  0  0  0  0
 49 58  1  0  0  0  0
 50 51  1  0  0  0  0
 50 62  1  0  0  0  0
 51 52  2  0  0  0  0
 51 61  1  0  0  0  0
 52 53  1  0  0  0  0
 52 57  1  0  0  0  0
 53 54  1  0  0  0  0
 53 55  1  0  0  0  0
 53 56  1  0  0  0  0
 57 58  2  0  0  0  0
 57 60  1  0  0  0  0
 58 59  1  0  0  0  0
M  CHG  1   4   1
M  END
>  <MODEL>
       3

$$$$
best_conformers_19.pdb
 OpenBabel02042510453D

 67 71  0  0  1  0  0  0  0  0999 V2000
    5.8110   -5.9340   21.9380 O   0  0  0  0  0  0  0  0  0  0  0  0
    6.5540   -5.8650   22.9060 C   0  0  0  0  0  0  0  0  0  0  0  0
    7.8100   -5.0060   22.8530 C   0  0  0  0  0  0  0  0  0  0  0  0
    7.4710   -3.5540   22.9360 N   0  3  1  0  0  0  0  0  0  0  0  0
    6.8650   -3.2020   24.3090 C   0  0  0  0  0  0  0  0  0  0  0  0
    6.6320   -1.7230   24.4810 C   0  0  0  0  0  0  0  0  0  0  0  0
    5.7000   -1.2880   25.4250 C   0  0  0  0  0  0  0  0  0  0  0  0
    5.4780    0.0650   25.6510 C   0  0  0  0  0  0  0  0  0  0  0  0
    6.2110    0.9930   24.9160 C   0  0  0  0  0  0  0  0  0  0  0  0
    5.9320    2.6990   25.1690 Cl  0  0  0  0  0  0  0  0  0  0  0  0
    7.1410    0.5830   23.9710 C   0  0  0  0  0  0  0  0  0  0  0  0
    7.3400   -0.7830   23.7350 C   0  0  0  0  0  0  0  0  0  0  0  0
    8.2590   -1.1890   22.6100 C   0  0  2  0  0  0  0  0  0  0  0  0
    7.7680   -0.7900   21.2130 C   0  0  0  0  0  0  0  0  0  0  0  0
    8.5740   -0.4400   20.3680 O   0  0  0  0  0  0  0  0  0  0  0  0
    6.4140   -0.8310   20.9680 N   0  0  0  0  0  0  0  0  0  0  0  0
    5.8180   -0.1930   19.8500 C   0  0  0  0  0  0  0  0  0  0  0  0
    6.2580   -0.4640   18.5760 C   0  0  0  0  0  0  0  0  0  0  0  0
    5.7670    0.1150   17.4520 N   0  0  0  0  0  0  0  0  0  0  0  0
    4.8000    0.9950   17.5990 C   0  0  0  0  0  0  0  0  0  0  0  0
    4.2340    1.3600   18.8520 C   0  0  0  0  0  0  0  0  0  0  0  0
    3.1870    2.3160   18.9550 C   0  0  0  0  0  0  0  0  0  0  0  0
    2.6720    2.6510   20.1800 C   0  0  0  0  0  0  0  0  0  0  0  0
    3.1900    2.0550   21.3520 C   0  0  0  0  0  0  0  0  0  0  0  0
    4.2050    1.1320   21.2760 C   0  0  0  0  0  0  0  0  0  0  0  0
    4.7490    0.7520   20.0200 C   0  0  0  0  0  0  0  0  0  0  0  0
    4.6030    0.6920   22.1850 H   0  0  0  0  0  0  0  0  0  0  0  0
    2.7790    2.3330   22.3200 H   0  0  0  0  0  0  0  0  0  0  0  0
    1.8700    3.3830   20.2540 H   0  0  0  0  0  0  0  0  0  0  0  0
    2.8150    2.7760   18.0440 H   0  0  0  0  0  0  0  0  0  0  0  0
    4.4140    1.4640   16.6960 H   0  0  0  0  0  0  0  0  0  0  0  0
    7.0490   -1.1920   18.4210 H   0  0  0  0  0  0  0  0  0  0  0  0
    5.8260   -1.1340   21.7350 H   0  0  0  0  0  0  0  0  0  0  0  0
    8.6690   -2.6610   22.6740 C   0  0  0  0  0  0  0  0  0  0  0  0
    9.1690   -2.9490   21.7470 H   0  0  0  0  0  0  0  0  0  0  0  0
    9.3770   -2.8080   23.4960 H   0  0  0  0  0  0  0  0  0  0  0  0
    9.1830   -0.6150   22.6820 H   0  0  0  0  0  0  0  0  0  0  0  0
    7.6990    1.3230   23.4020 H   0  0  0  0  0  0  0  0  0  0  0  0
    4.7520    0.4040   26.3840 H   0  0  0  0  0  0  0  0  0  0  0  0
    5.1340   -2.0260   25.9890 H   0  0  0  0  0  0  0  0  0  0  0  0
    7.5570   -3.5790   25.0710 H   0  0  0  0  0  0  0  0  0  0  0  0
    5.9210   -3.7370   24.4140 H   0  0  0  0  0  0  0  0  0  0  0  0
    6.7710   -3.3680   22.1810 H   0  0  0  0  0  0  0  0  0  0  0  0
    8.5280   -5.2670   23.6420 H   0  0  0  0  0  0  0  0  0  0  0  0
    8.2510   -5.1650   21.8750 H   0  0  0  0  0  0  0  0  0  0  0  0
    6.3140   -6.5080   24.0770 N   0  0  0  0  0  0  0  0  0  0  0  0
    5.0550   -7.2040   24.2890 C   0  0  0  0  0  0  0  0  0  0  0  0
    3.8480   -6.2570   24.4540 C   0  0  0  0  0  0  0  0  0  0  0  0
    2.5570   -7.0100   24.6830 C   0  0  0  0  0  0  0  0  0  0  0  0
    2.1420   -7.3420   25.9740 C   0  0  0  0  0  0  0  0  0  0  0  0
    0.9730   -8.0700   26.1800 C   0  0  0  0  0  0  0  0  0  0  0  0
    0.2020   -8.4840   25.1000 C   0  0  0  0  0  0  0  0  0  0  0  0
   -1.0560   -9.2660   25.3200 C   0  0  0  0  0  0  0  0  0  0  0  0
   -2.1180   -8.6260   24.7490 F   0  0  0  0  0  0  0  0  0  0  0  0
   -0.9660  -10.4870   24.7170 F   0  0  0  0  0  0  0  0  0  0  0  0
   -1.2790   -9.4220   26.3830 H   0  0  0  0  0  0  0  0  0  0  0  0
    0.6140   -8.1700   23.8070 C   0  0  0  0  0  0  0  0  0  0  0  0
    1.7820   -7.4420   23.6030 C   0  0  0  0  0  0  0  0  0  0  0  0
    2.0980   -7.2070   22.5880 H   0  0  0  0  0  0  0  0  0  0  0  0
    0.0140   -8.5030   22.9650 H   0  0  0  0  0  0  0  0  0  0  0  0
    0.6590   -8.3180   27.1930 H   0  0  0  0  0  0  0  0  0  0  0  0
    2.7370   -7.0270   26.8300 H   0  0  0  0  0  0  0  0  0  0  0  0
    4.0380   -5.5810   25.3000 H   0  0  0  0  0  0  0  0  0  0  0  0
    3.7710   -5.6430   23.5460 H   0  0  0  0  0  0  0  0  0  0  0  0
    5.1660   -7.8270   25.1820 H   0  0  0  0  0  0  0  0  0  0  0  0
    4.8790   -7.8500   23.4220 H   0  0  0  0  0  0  0  0  0  0  0  0
    6.9620   -6.3850   24.8410 H   0  0  0  0  0  0  0  0  0  0  0  0
  1  2  2  0  0  0  0
  2  3  1  0  0  0  0
  2 46  1  0  0  0  0
  3  4  1  0  0  0  0
  3 44  1  0  0  0  0
  3 45  1  0  0  0  0
  4  5  1  0  0  0  0
  4 34  1  0  0  0  0
  4 43  1  6  0  0  0
  5  6  1  0  0  0  0
  5 41  1  0  0  0  0
  5 42  1  0  0  0  0
  6  7  2  0  0  0  0
  6 12  1  0  0  0  0
  7  8  1  0  0  0  0
  7 40  1  0  0  0  0
  8  9  2  0  0  0  0
  8 39  1  0  0  0  0
  9 10  1  0  0  0  0
  9 11  1  0  0  0  0
 11 12  2  0  0  0  0
 11 38  1  0  0  0  0
 12 13  1  0  0  0  0
 13 14  1  0  0  0  0
 13 34  1  0  0  0  0
 13 37  1  1  0  0  0
 14 15  2  0  0  0  0
 14 16  1  0  0  0  0
 16 17  1  0  0  0  0
 16 33  1  0  0  0  0
 17 18  2  0  0  0  0
 17 26  1  0  0  0  0
 18 19  1  0  0  0  0
 18 32  1  0  0  0  0
 19 20  2  0  0  0  0
 20 21  1  0  0  0  0
 20 31  1  0  0  0  0
 21 22  2  0  0  0  0
 21 26  1  0  0  0  0
 22 23  1  0  0  0  0
 22 30  1  0  0  0  0
 23 24  2  0  0  0  0
 23 29  1  0  0  0  0
 24 25  1  0  0  0  0
 24 28  1  0  0  0  0
 25 26  2  0  0  0  0
 25 27  1  0  0  0  0
 34 35  1  0  0  0  0
 34 36  1  0  0  0  0
 46 47  1  0  0  0  0
 46 67  1  0  0  0  0
 47 48  1  0  0  0  0
 47 65  1  0  0  0  0
 47 66  1  0  0  0  0
 48 49  1  0  0  0  0
 48 63  1  0  0  0  0
 48 64  1  0  0  0  0
 49 50  2  0  0  0  0
 49 58  1  0  0  0  0
 50 51  1  0  0  0  0
 50 62  1  0  0  0  0
 51 52  2  0  0  0  0
 51 61  1  0  0  0  0
 52 53  1  0  0  0  0
 52 57  1  0  0  0  0
 53 54  1  0  0  0  0
 53 55  1  0  0  0  0
 53 56  1  0  0  0  0
 57 58  2  0  0  0  0
 57 60  1  0  0  0  0
 58 59  1  0  0  0  0
M  CHG  1   4   1
M  END
>  <MODEL>
       4

$$$$
