best_conformers_47.pdb
 OpenBabel02042510453D

 56 60  0  0  1  0  0  0  0  0999 V2000
    6.9940   -8.5460   22.9020 C   0  0  0  0  0  0  0  0  0  0  0  0
    6.0360   -7.5730   22.4320 N   0  0  0  0  0  0  0  0  0  0  0  0
    6.3200   -6.6180   21.5160 C   0  0  0  0  0  0  0  0  0  0  0  0
    7.3770   -6.5360   20.9050 O   0  0  0  0  0  0  0  0  0  0  0  0
    5.2170   -5.5500   21.4690 C   0  0  0  0  0  0  0  0  0  0  0  0
    5.5240   -4.5650   22.4850 N   0  0  0  0  0  0  0  0  0  0  0  0
    6.7800   -3.8570   22.3310 C   0  0  0  0  0  0  0  0  0  0  0  0
    6.6060   -2.3950   22.7620 C   0  0  2  0  0  0  0  0  0  0  0  0
    5.6720   -1.7390   21.7230 C   0  0  0  0  0  0  0  0  0  0  0  0
    4.5070   -2.0170   21.5330 O   0  0  0  0  0  0  0  0  0  0  0  0
    6.3850   -0.8220   20.9810 N   0  0  0  0  0  0  0  0  0  0  0  0
    5.8130   -0.1800   19.8600 C   0  0  0  0  0  0  0  0  0  0  0  0
    6.2700   -0.4450   18.5930 C   0  0  0  0  0  0  0  0  0  0  0  0
    5.7900    0.1250   17.4590 N   0  0  0  0  0  0  0  0  0  0  0  0
    4.8110    0.9910   17.5960 C   0  0  0  0  0  0  0  0  0  0  0  0
    4.2460    1.3610   18.8500 C   0  0  0  0  0  0  0  0  0  0  0  0
    3.1970    2.3140   18.9420 C   0  0  0  0  0  0  0  0  0  0  0  0
    2.6820    2.6600   20.1620 C   0  0  0  0  0  0  0  0  0  0  0  0
    3.1930    2.0800   21.3440 C   0  0  0  0  0  0  0  0  0  0  0  0
    4.2100    1.1620   21.2830 C   0  0  0  0  0  0  0  0  0  0  0  0
    4.7540    0.7690   20.0260 C   0  0  0  0  0  0  0  0  0  0  0  0
    4.5990    0.7230   22.1970 H   0  0  0  0  0  0  0  0  0  0  0  0
    2.7850    2.3750   22.3070 H   0  0  0  0  0  0  0  0  0  0  0  0
    1.8850    3.3960   20.2320 H   0  0  0  0  0  0  0  0  0  0  0  0
    2.8220    2.7660   18.0270 H   0  0  0  0  0  0  0  0  0  0  0  0
    4.4200    1.4590   16.6910 H   0  0  0  0  0  0  0  0  0  0  0  0
    7.0580   -1.1840   18.4490 H   0  0  0  0  0  0  0  0  0  0  0  0
    7.8150   -0.8930   21.2240 C   0  0  0  0  0  0  0  0  0  0  0  0
    7.9250   -1.5770   22.6010 C   0  0  2  0  0  0  0  0  0  0  0  0
    9.2370   -2.3520   22.7470 C   0  0  0  0  0  0  0  0  0  0  0  0
    9.3520   -3.0950   21.9470 H   0  0  0  0  0  0  0  0  0  0  0  0
   10.0960   -1.6740   22.6890 H   0  0  0  0  0  0  0  0  0  0  0  0
    9.2950   -2.8830   23.7020 H   0  0  0  0  0  0  0  0  0  0  0  0
    7.9220   -0.7890   23.3590 H   0  0  0  0  0  0  0  0  0  0  0  0
    8.3400   -1.4750   20.4510 H   0  0  0  0  0  0  0  0  0  0  0  0
    8.2470    0.1120   21.2310 H   0  0  0  0  0  0  0  0  0  0  0  0
    5.9640   -2.3990   24.1400 C   0  0  0  0  0  0  0  0  0  0  0  0
    5.9760   -1.2460   24.9300 C   0  0  0  0  0  0  0  0  0  0  0  0
    5.3800   -1.2690   26.1760 C   0  0  0  0  0  0  0  0  0  0  0  0
    5.3920   -0.1480   26.9140 F   0  0  0  0  0  0  0  0  0  0  0  0
    4.7600   -2.3950   26.7050 C   0  0  0  0  0  0  0  0  0  0  0  0
    4.6980   -3.5160   25.9050 C   0  0  0  0  0  0  0  0  0  0  0  0
    5.2450   -3.5080   24.6220 C   0  0  0  0  0  0  0  0  0  0  0  0
    4.9640   -4.6730   23.7280 C   0  0  0  0  0  0  0  0  0  0  0  0
    4.2620   -5.6270   24.0580 O   0  0  0  0  0  0  0  0  0  0  0  0
    4.1990   -4.4150   26.2440 H   0  0  0  0  0  0  0  0  0  0  0  0
    4.3150   -2.3630   27.6950 H   0  0  0  0  0  0  0  0  0  0  0  0
    6.4200   -0.3210   24.5790 H   0  0  0  0  0  0  0  0  0  0  0  0
    7.5710   -4.3480   22.9150 H   0  0  0  0  0  0  0  0  0  0  0  0
    7.0730   -3.8990   21.2840 H   0  0  0  0  0  0  0  0  0  0  0  0
    4.2270   -5.9650   21.6900 H   0  0  0  0  0  0  0  0  0  0  0  0
    5.2090   -5.0480   20.4970 H   0  0  0  0  0  0  0  0  0  0  0  0
    5.0910   -7.6220   22.7970 H   0  0  0  0  0  0  0  0  0  0  0  0
    7.9950   -8.1120   22.9010 H   0  0  0  0  0  0  0  0  0  0  0  0
    6.7130   -8.8430   23.9140 H   0  0  0  0  0  0  0  0  0  0  0  0
    7.0320   -9.4520   22.2980 H   0  0  0  0  0  0  0  0  0  0  0  0
  1  2  1  0  0  0  0
  1 54  1  0  0  0  0
  1 55  1  0  0  0  0
  1 56  1  0  0  0  0
  2  3  1  0  0  0  0
  2 53  1  0  0  0  0
  3  4  2  0  0  0  0
  3  5  1  0  0  0  0
  5  6  1  0  0  0  0
  5 51  1  0  0  0  0
  5 52  1  0  0  0  0
  6  7  1  0  0  0  0
  6 44  1  0  0  0  0
  7  8  1  0  0  0  0
  7 49  1  0  0  0  0
  7 50  1  0  0  0  0
  8  9  1  6  0  0  0
  8 29  1  0  0  0  0
  8 37  1  0  0  0  0
  9 10  2  0  0  0  0
  9 11  1  0  0  0  0
 11 12  1  0  0  0  0
 11 28  1  0  0  0  0
 12 13  2  0  0  0  0
 12 21  1  0  0  0  0
 13 14  1  0  0  0  0
 13 27  1  0  0  0  0
 14 15  2  0  0  0  0
 15 16  1  0  0  0  0
 15 26  1  0  0  0  0
 16 17  2  0  0  0  0
 16 21  1  0  0  0  0
 17 18  1  0  0  0  0
 17 25  1  0  0  0  0
 18 19  2  0  0  0  0
 18 24  1  0  0  0  0
 19 20  1  0  0  0  0
 19 23  1  0  0  0  0
 20 21  2  0  0  0  0
 20 22  1  0  0  0  0
 28 29  1  0  0  0  0
 28 35  1  0  0  0  0
 28 36  1  0  0  0  0
 29 30  1  0  0  0  0
 29 34  1  1  0  0  0
 30 31  1  0  0  0  0
 30 32  1  0  0  0  0
 30 33  1  0  0  0  0
 37 38  2  0  0  0  0
 37 43  1  0  0  0  0
 38 39  1  0  0  0  0
 38 48  1  0  0  0  0
 39 40  1  0  0  0  0
 39 41  2  0  0  0  0
 41 42  1  0  0  0  0
 41 47  1  0  0  0  0
 42 43  2  0  0  0  0
 42 46  1  0  0  0  0
 43 44  1  0  0  0  0
 44 45  2  0  0  0  0
M  END
>  <MODEL>
       1

$$$$
best_conformers_47.pdb
 OpenBabel02042510453D

 56 60  0  0  1  0  0  0  0  0999 V2000
    5.0490   -8.2410   25.4310 C   0  0  0  0  0  0  0  0  0  0  0  0
    4.5250   -7.0440   24.8120 N   0  0  0  0  0  0  0  0  0  0  0  0
    5.1800   -6.5520   23.7360 C   0  0  0  0  0  0  0  0  0  0  0  0
    6.1840   -7.0810   23.2770 O   0  0  0  0  0  0  0  0  0  0  0  0
    4.5750   -5.2840   23.1300 C   0  0  0  0  0  0  0  0  0  0  0  0
    5.1580   -4.0730   23.6590 N   0  0  0  0  0  0  0  0  0  0  0  0
    6.4710   -3.6650   23.2000 C   0  0  0  0  0  0  0  0  0  0  0  0
    6.5470   -2.1390   22.9690 C   0  0  2  0  0  0  0  0  0  0  0  0
    5.6780   -1.7460   21.7510 C   0  0  0  0  0  0  0  0  0  0  0  0
    4.5480   -2.1150   21.5200 O   0  0  0  0  0  0  0  0  0  0  0  0
    6.3930   -0.8770   20.9590 N   0  0  0  0  0  0  0  0  0  0  0  0
    5.8010   -0.2110   19.8550 C   0  0  0  0  0  0  0  0  0  0  0  0
    6.2580   -0.4610   18.5870 C   0  0  0  0  0  0  0  0  0  0  0  0
    5.7850    0.1310   17.4620 N   0  0  0  0  0  0  0  0  0  0  0  0
    4.8100    0.9980   17.6110 C   0  0  0  0  0  0  0  0  0  0  0  0
    4.2390    1.3610   18.8640 C   0  0  0  0  0  0  0  0  0  0  0  0
    3.1920    2.3200   18.9580 C   0  0  0  0  0  0  0  0  0  0  0  0
    2.6770    2.6700   20.1750 C   0  0  0  0  0  0  0  0  0  0  0  0
    3.1990    2.0860   21.3550 C   0  0  0  0  0  0  0  0  0  0  0  0
    4.2120    1.1620   21.2910 C   0  0  0  0  0  0  0  0  0  0  0  0
    4.7500    0.7530   20.0350 C   0  0  0  0  0  0  0  0  0  0  0  0
    4.5990    0.7220   22.2100 H   0  0  0  0  0  0  0  0  0  0  0  0
    2.7840    2.3710   22.3180 H   0  0  0  0  0  0  0  0  0  0  0  0
    1.8760    3.4010   20.2460 H   0  0  0  0  0  0  0  0  0  0  0  0
    2.8190    2.7730   18.0400 H   0  0  0  0  0  0  0  0  0  0  0  0
    4.4180    1.4560   16.7020 H   0  0  0  0  0  0  0  0  0  0  0  0
    7.0520   -1.1900   18.4290 H   0  0  0  0  0  0  0  0  0  0  0  0
    7.7500   -0.6270   21.4070 C   0  0  0  0  0  0  0  0  0  0  0  0
    7.9760   -1.6270   22.5710 C   0  0  2  0  0  0  0  0  0  0  0  0
    8.9930   -2.7060   22.1630 C   0  0  0  0  0  0  0  0  0  0  0  0
    8.6440   -3.2890   21.3060 H   0  0  0  0  0  0  0  0  0  0  0  0
    9.9450   -2.2400   21.8810 H   0  0  0  0  0  0  0  0  0  0  0  0
    9.2030   -3.4030   22.9790 H   0  0  0  0  0  0  0  0  0  0  0  0
    8.4090   -1.1080   23.4350 H   0  0  0  0  0  0  0  0  0  0  0  0
    8.4590   -0.7940   20.5880 H   0  0  0  0  0  0  0  0  0  0  0  0
    7.8750    0.4210   21.7200 H   0  0  0  0  0  0  0  0  0  0  0  0
    5.9840   -1.4620   24.2190 C   0  0  0  0  0  0  0  0  0  0  0  0
    6.2930   -0.1220   24.4950 C   0  0  0  0  0  0  0  0  0  0  0  0
    5.7420    0.4850   25.6050 C   0  0  0  0  0  0  0  0  0  0  0  0
    6.0510    1.7660   25.8710 F   0  0  0  0  0  0  0  0  0  0  0  0
    4.8740   -0.1720   26.4660 C   0  0  0  0  0  0  0  0  0  0  0  0
    4.5380   -1.4800   26.1760 C   0  0  0  0  0  0  0  0  0  0  0  0
    5.0680   -2.1200   25.0580 C   0  0  0  0  0  0  0  0  0  0  0  0
    4.5720   -3.4990   24.7430 C   0  0  0  0  0  0  0  0  0  0  0  0
    3.6890   -4.0720   25.3740 O   0  0  0  0  0  0  0  0  0  0  0  0
    3.8400   -2.0420   26.7870 H   0  0  0  0  0  0  0  0  0  0  0  0
    4.4750    0.3590   27.3200 H   0  0  0  0  0  0  0  0  0  0  0  0
    6.9450    0.4780   23.8680 H   0  0  0  0  0  0  0  0  0  0  0  0
    7.2320   -3.9540   23.9400 H   0  0  0  0  0  0  0  0  0  0  0  0
    6.6590   -4.2030   22.2700 H   0  0  0  0  0  0  0  0  0  0  0  0
    4.7750   -5.3110   22.0560 H   0  0  0  0  0  0  0  0  0  0  0  0
    3.4940   -5.2310   23.2980 H   0  0  0  0  0  0  0  0  0  0  0  0
    3.6870   -6.5790   25.1320 H   0  0  0  0  0  0  0  0  0  0  0  0
    4.3920   -8.5400   26.2490 H   0  0  0  0  0  0  0  0  0  0  0  0
    5.1140   -9.0270   24.6740 H   0  0  0  0  0  0  0  0  0  0  0  0
    6.0620   -8.0690   25.8180 H   0  0  0  0  0  0  0  0  0  0  0  0
  1  2  1  0  0  0  0
  1 54  1  0  0  0  0
  1 55  1  0  0  0  0
  1 56  1  0  0  0  0
  2  3  1  0  0  0  0
  2 53  1  0  0  0  0
  3  4  2  0  0  0  0
  3  5  1  0  0  0  0
  5  6  1  0  0  0  0
  5 51  1  0  0  0  0
  5 52  1  0  0  0  0
  6  7  1  0  0  0  0
  6 44  1  0  0  0  0
  7  8  1  0  0  0  0
  7 49  1  0  0  0  0
  7 50  1  0  0  0  0
  8  9  1  6  0  0  0
  8 29  1  0  0  0  0
  8 37  1  0  0  0  0
  9 10  2  0  0  0  0
  9 11  1  0  0  0  0
 11 12  1  0  0  0  0
 11 28  1  0  0  0  0
 12 13  2  0  0  0  0
 12 21  1  0  0  0  0
 13 14  1  0  0  0  0
 13 27  1  0  0  0  0
 14 15  2  0  0  0  0
 15 16  1  0  0  0  0
 15 26  1  0  0  0  0
 16 17  2  0  0  0  0
 16 21  1  0  0  0  0
 17 18  1  0  0  0  0
 17 25  1  0  0  0  0
 18 19  2  0  0  0  0
 18 24  1  0  0  0  0
 19 20  1  0  0  0  0
 19 23  1  0  0  0  0
 20 21  2  0  0  0  0
 20 22  1  0  0  0  0
 28 29  1  0  0  0  0
 28 35  1  0  0  0  0
 28 36  1  0  0  0  0
 29 30  1  0  0  0  0
 29 34  1  1  0  0  0
 30 31  1  0  0  0  0
 30 32  1  0  0  0  0
 30 33  1  0  0  0  0
 37 38  2  0  0  0  0
 37 43  1  0  0  0  0
 38 39  1  0  0  0  0
 38 48  1  0  0  0  0
 39 40  1  0  0  0  0
 39 41  2  0  0  0  0
 41 42  1  0  0  0  0
 41 47  1  0  0  0  0
 42 43  2  0  0  0  0
 42 46  1  0  0  0  0
 43 44  1  0  0  0  0
 44 45  2  0  0  0  0
M  END
>  <MODEL>
       2

$$$$
best_conformers_47.pdb
 OpenBabel02042510453D

 56 60  0  0  1  0  0  0  0  0999 V2000
    5.6090    0.2300   29.5550 C   0  0  0  0  0  0  0  0  0  0  0  0
    5.9690   -0.8460   28.6460 N   0  0  0  0  0  0  0  0  0  0  0  0
    5.4650   -0.8500   27.3870 C   0  0  0  0  0  0  0  0  0  0  0  0
    4.6280   -0.0370   27.0170 O   0  0  0  0  0  0  0  0  0  0  0  0
    5.9650   -1.9630   26.4580 C   0  0  0  0  0  0  0  0  0  0  0  0
    6.9600   -1.5220   25.4970 N   0  0  0  0  0  0  0  0  0  0  0  0
    6.5430   -0.8080   24.3020 C   0  0  0  0  0  0  0  0  0  0  0  0
    7.4810   -1.0820   23.0990 C   0  0  2  0  0  0  0  0  0  0  0  0
    7.0960   -0.0930   21.9810 C   0  0  0  0  0  0  0  0  0  0  0  0
    7.2840    1.1070   21.9710 O   0  0  0  0  0  0  0  0  0  0  0  0
    6.4550   -0.7890   20.9790 N   0  0  0  0  0  0  0  0  0  0  0  0
    5.8480   -0.1510   19.8660 C   0  0  0  0  0  0  0  0  0  0  0  0
    6.2590   -0.4570   18.5930 C   0  0  0  0  0  0  0  0  0  0  0  0
    5.7710    0.1150   17.4640 N   0  0  0  0  0  0  0  0  0  0  0  0
    4.8080    0.9960   17.6090 C   0  0  0  0  0  0  0  0  0  0  0  0
    4.2410    1.3660   18.8620 C   0  0  0  0  0  0  0  0  0  0  0  0
    3.1790    2.3090   18.9540 C   0  0  0  0  0  0  0  0  0  0  0  0
    2.6290    2.6220   20.1680 C   0  0  0  0  0  0  0  0  0  0  0  0
    3.1120    1.9970   21.3410 C   0  0  0  0  0  0  0  0  0  0  0  0
    4.1390    1.0910   21.2750 C   0  0  0  0  0  0  0  0  0  0  0  0
    4.7550    0.7650   20.0330 C   0  0  0  0  0  0  0  0  0  0  0  0
    4.4990    0.6230   22.1840 H   0  0  0  0  0  0  0  0  0  0  0  0
    2.6740    2.2500   22.3020 H   0  0  0  0  0  0  0  0  0  0  0  0
    1.8260    3.3510   20.2370 H   0  0  0  0  0  0  0  0  0  0  0  0
    2.8210    2.7770   18.0390 H   0  0  0  0  0  0  0  0  0  0  0  0
    4.4210    1.4580   16.7000 H   0  0  0  0  0  0  0  0  0  0  0  0
    7.0440   -1.1950   18.4320 H   0  0  0  0  0  0  0  0  0  0  0  0
    6.2990   -2.2060   21.2530 C   0  0  0  0  0  0  0  0  0  0  0  0
    7.2730   -2.4810   22.4100 C   0  0  2  0  0  0  0  0  0  0  0  0
    6.8260   -3.6380   23.3080 C   0  0  0  0  0  0  0  0  0  0  0  0
    5.8330   -3.4500   23.7320 H   0  0  0  0  0  0  0  0  0  0  0  0
    6.7720   -4.5730   22.7420 H   0  0  0  0  0  0  0  0  0  0  0  0
    7.5160   -3.7840   24.1430 H   0  0  0  0  0  0  0  0  0  0  0  0
    8.2560   -2.7300   21.9840 H   0  0  0  0  0  0  0  0  0  0  0  0
    5.2620   -2.4470   21.5340 H   0  0  0  0  0  0  0  0  0  0  0  0
    6.5290   -2.7820   20.3580 H   0  0  0  0  0  0  0  0  0  0  0  0
    8.9150   -0.8860   23.5610 C   0  0  0  0  0  0  0  0  0  0  0  0
    9.9190   -0.6090   22.6260 C   0  0  0  0  0  0  0  0  0  0  0  0
   11.2270   -0.5010   23.0530 C   0  0  0  0  0  0  0  0  0  0  0  0
   12.1830   -0.2120   22.1570 F   0  0  0  0  0  0  0  0  0  0  0  0
   11.5970   -0.6810   24.3800 C   0  0  0  0  0  0  0  0  0  0  0  0
   10.6090   -0.9910   25.2980 C   0  0  0  0  0  0  0  0  0  0  0  0
    9.2780   -1.1010   24.8960 C   0  0  0  0  0  0  0  0  0  0  0  0
    8.2640   -1.5510   25.8930 C   0  0  0  0  0  0  0  0  0  0  0  0
    8.5800   -1.9720   26.9970 O   0  0  0  0  0  0  0  0  0  0  0  0
   10.8430   -1.1830   26.3390 H   0  0  0  0  0  0  0  0  0  0  0  0
   12.6430   -0.5940   24.6540 H   0  0  0  0  0  0  0  0  0  0  0  0
    9.6970   -0.4620   21.5740 H   0  0  0  0  0  0  0  0  0  0  0  0
    6.5560    0.2780   24.4810 H   0  0  0  0  0  0  0  0  0  0  0  0
    5.5150   -1.1160   24.0670 H   0  0  0  0  0  0  0  0  0  0  0  0
    5.0810   -2.2980   25.9100 H   0  0  0  0  0  0  0  0  0  0  0  0
    6.3860   -2.8040   27.0170 H   0  0  0  0  0  0  0  0  0  0  0  0
    6.7120   -1.4920   28.8770 H   0  0  0  0  0  0  0  0  0  0  0  0
    6.1550    0.0870   30.4910 H   0  0  0  0  0  0  0  0  0  0  0  0
    4.5280    0.2340   29.7550 H   0  0  0  0  0  0  0  0  0  0  0  0
    5.8610    1.2100   29.1270 H   0  0  0  0  0  0  0  0  0  0  0  0
  1  2  1  0  0  0  0
  1 54  1  0  0  0  0
  1 55  1  0  0  0  0
  1 56  1  0  0  0  0
  2  3  1  0  0  0  0
  2 53  1  0  0  0  0
  3  4  2  0  0  0  0
  3  5  1  0  0  0  0
  5  6  1  0  0  0  0
  5 51  1  0  0  0  0
  5 52  1  0  0  0  0
  6  7  1  0  0  0  0
  6 44  1  0  0  0  0
  7  8  1  0  0  0  0
  7 49  1  0  0  0  0
  7 50  1  0  0  0  0
  8  9  1  6  0  0  0
  8 29  1  0  0  0  0
  8 37  1  0  0  0  0
  9 10  2  0  0  0  0
  9 11  1  0  0  0  0
 11 12  1  0  0  0  0
 11 28  1  0  0  0  0
 12 13  2  0  0  0  0
 12 21  1  0  0  0  0
 13 14  1  0  0  0  0
 13 27  1  0  0  0  0
 14 15  2  0  0  0  0
 15 16  1  0  0  0  0
 15 26  1  0  0  0  0
 16 17  2  0  0  0  0
 16 21  1  0  0  0  0
 17 18  1  0  0  0  0
 17 25  1  0  0  0  0
 18 19  2  0  0  0  0
 18 24  1  0  0  0  0
 19 20  1  0  0  0  0
 19 23  1  0  0  0  0
 20 21  2  0  0  0  0
 20 22  1  0  0  0  0
 28 29  1  0  0  0  0
 28 35  1  0  0  0  0
 28 36  1  0  0  0  0
 29 30  1  0  0  0  0
 29 34  1  6  0  0  0
 30 31  1  0  0  0  0
 30 32  1  0  0  0  0
 30 33  1  0  0  0  0
 37 38  2  0  0  0  0
 37 43  1  0  0  0  0
 38 39  1  0  0  0  0
 38 48  1  0  0  0  0
 39 40  1  0  0  0  0
 39 41  2  0  0  0  0
 41 42  1  0  0  0  0
 41 47  1  0  0  0  0
 42 43  2  0  0  0  0
 42 46  1  0  0  0  0
 43 44  1  0  0  0  0
 44 45  2  0  0  0  0
M  END
>  <MODEL>
       3

$$$$
best_conformers_47.pdb
 OpenBabel02042510453D

 56 60  0  0  1  0  0  0  0  0999 V2000
    7.1340   -8.9240   23.9020 C   0  0  0  0  0  0  0  0  0  0  0  0
    6.2020   -8.0150   23.2840 N   0  0  0  0  0  0  0  0  0  0  0  0
    6.7740   -6.9930   22.6210 C   0  0  0  0  0  0  0  0  0  0  0  0
    7.9920   -6.9020   22.5800 O   0  0  0  0  0  0  0  0  0  0  0  0
    5.8910   -5.9470   21.9710 C   0  0  0  0  0  0  0  0  0  0  0  0
    5.8830   -4.7420   22.7640 N   0  0  0  0  0  0  0  0  0  0  0  0
    7.0430   -3.8670   22.7380 C   0  0  0  0  0  0  0  0  0  0  0  0
    6.6010   -2.3890   22.7680 C   0  0  2  0  0  0  0  0  0  0  0  0
    5.8750   -2.0350   21.4440 C   0  0  0  0  0  0  0  0  0  0  0  0
    4.9770   -2.6490   20.9130 O   0  0  0  0  0  0  0  0  0  0  0  0
    6.3980   -0.8550   20.9630 N   0  0  0  0  0  0  0  0  0  0  0  0
    5.8020   -0.2010   19.8500 C   0  0  0  0  0  0  0  0  0  0  0  0
    6.2460   -0.4700   18.5820 C   0  0  0  0  0  0  0  0  0  0  0  0
    5.7780    0.1280   17.4560 N   0  0  0  0  0  0  0  0  0  0  0  0
    4.8120    1.0050   17.6030 C   0  0  0  0  0  0  0  0  0  0  0  0
    4.2370    1.3660   18.8580 C   0  0  0  0  0  0  0  0  0  0  0  0
    3.1880    2.3210   18.9580 C   0  0  0  0  0  0  0  0  0  0  0  0
    2.6620    2.6440   20.1790 C   0  0  0  0  0  0  0  0  0  0  0  0
    3.1600    2.0300   21.3510 C   0  0  0  0  0  0  0  0  0  0  0  0
    4.1730    1.1050   21.2820 C   0  0  0  0  0  0  0  0  0  0  0  0
    4.7420    0.7490   20.0240 C   0  0  0  0  0  0  0  0  0  0  0  0
    4.5410    0.6370   22.1930 H   0  0  0  0  0  0  0  0  0  0  0  0
    2.7310    2.2960   22.3130 H   0  0  0  0  0  0  0  0  0  0  0  0
    1.8590    3.3730   20.2560 H   0  0  0  0  0  0  0  0  0  0  0  0
    2.8200    2.7860   18.0470 H   0  0  0  0  0  0  0  0  0  0  0  0
    4.4210    1.4660   16.6970 H   0  0  0  0  0  0  0  0  0  0  0  0
    7.0350   -1.2030   18.4300 H   0  0  0  0  0  0  0  0  0  0  0  0
    7.4290   -0.2620   21.7900 C   0  0  0  0  0  0  0  0  0  0  0  0
    7.7910   -1.3670   22.8170 C   0  0  2  0  0  0  0  0  0  0  0  0
    9.1900   -1.9370   22.5240 C   0  0  0  0  0  0  0  0  0  0  0  0
    9.9380   -1.1360   22.5680 H   0  0  0  0  0  0  0  0  0  0  0  0
    9.2450   -2.3910   21.5270 H   0  0  0  0  0  0  0  0  0  0  0  0
    9.4840   -2.6920   23.2600 H   0  0  0  0  0  0  0  0  0  0  0  0
    7.8380   -0.9420   23.8270 H   0  0  0  0  0  0  0  0  0  0  0  0
    7.0710    0.6570   22.2790 H   0  0  0  0  0  0  0  0  0  0  0  0
    8.2890    0.0240   21.1710 H   0  0  0  0  0  0  0  0  0  0  0  0
    5.6180   -2.2350   23.9340 C   0  0  0  0  0  0  0  0  0  0  0  0
    5.3720   -0.9710   24.4920 C   0  0  0  0  0  0  0  0  0  0  0  0
    4.4340   -0.8430   25.4970 C   0  0  0  0  0  0  0  0  0  0  0  0
    4.2070    0.3710   26.0310 F   0  0  0  0  0  0  0  0  0  0  0  0
    3.7090   -1.9210   25.9860 C   0  0  0  0  0  0  0  0  0  0  0  0
    3.9240   -3.1630   25.4240 C   0  0  0  0  0  0  0  0  0  0  0  0
    4.8560   -3.3190   24.4000 C   0  0  0  0  0  0  0  0  0  0  0  0
    4.9540   -4.6610   23.7560 C   0  0  0  0  0  0  0  0  0  0  0  0
    4.2400   -5.6170   24.0550 O   0  0  0  0  0  0  0  0  0  0  0  0
    3.3650   -4.0430   25.7290 H   0  0  0  0  0  0  0  0  0  0  0  0
    2.9870   -1.7620   26.7760 H   0  0  0  0  0  0  0  0  0  0  0  0
    5.8800   -0.0680   24.1660 H   0  0  0  0  0  0  0  0  0  0  0  0
    7.6960   -4.0630   23.6040 H   0  0  0  0  0  0  0  0  0  0  0  0
    7.6040   -4.0880   21.8270 H   0  0  0  0  0  0  0  0  0  0  0  0
    6.3240   -5.7090   20.9970 H   0  0  0  0  0  0  0  0  0  0  0  0
    4.8610   -6.2820   21.8440 H   0  0  0  0  0  0  0  0  0  0  0  0
    5.2350   -7.9960   23.5660 H   0  0  0  0  0  0  0  0  0  0  0  0
    7.9430   -8.3580   24.3810 H   0  0  0  0  0  0  0  0  0  0  0  0
    6.5700   -9.4950   24.6310 H   0  0  0  0  0  0  0  0  0  0  0  0
    7.6150   -9.5710   23.1610 H   0  0  0  0  0  0  0  0  0  0  0  0
  1  2  1  0  0  0  0
  1 54  1  0  0  0  0
  1 55  1  0  0  0  0
  1 56  1  0  0  0  0
  2  3  1  0  0  0  0
  2 53  1  0  0  0  0
  3  4  2  0  0  0  0
  3  5  1  0  0  0  0
  5  6  1  0  0  0  0
  5 51  1  0  0  0  0
  5 52  1  0  0  0  0
  6  7  1  0  0  0  0
  6 44  1  0  0  0  0
  7  8  1  0  0  0  0
  7 49  1  0  0  0  0
  7 50  1  0  0  0  0
  8  9  1  6  0  0  0
  8 29  1  0  0  0  0
  8 37  1  0  0  0  0
  9 10  2  0  0  0  0
  9 11  1  0  0  0  0
 11 12  1  0  0  0  0
 11 28  1  0  0  0  0
 12 13  2  0  0  0  0
 12 21  1  0  0  0  0
 13 14  1  0  0  0  0
 13 27  1  0  0  0  0
 14 15  2  0  0  0  0
 15 16  1  0  0  0  0
 15 26  1  0  0  0  0
 16 17  2  0  0  0  0
 16 21  1  0  0  0  0
 17 18  1  0  0  0  0
 17 25  1  0  0  0  0
 18 19  2  0  0  0  0
 18 24  1  0  0  0  0
 19 20  1  0  0  0  0
 19 23  1  0  0  0  0
 20 21  2  0  0  0  0
 20 22  1  0  0  0  0
 28 29  1  0  0  0  0
 28 35  1  0  0  0  0
 28 36  1  0  0  0  0
 29 30  1  0  0  0  0
 29 34  1  1  0  0  0
 30 31  1  0  0  0  0
 30 32  1  0  0  0  0
 30 33  1  0  0  0  0
 37 38  2  0  0  0  0
 37 43  1  0  0  0  0
 38 39  1  0  0  0  0
 38 48  1  0  0  0  0
 39 40  1  0  0  0  0
 39 41  2  0  0  0  0
 41 42  1  0  0  0  0
 41 47  1  0  0  0  0
 42 43  2  0  0  0  0
 42 46  1  0  0  0  0
 43 44  1  0  0  0  0
 44 45  2  0  0  0  0
M  END
>  <MODEL>
       4

$$$$
