best_conformers_57.pdb
 OpenBabel02042510453D

 67 72  0  0  1  0  0  0  0  0999 V2000
    5.0370   -8.1390   25.4950 C   0  0  0  0  0  0  0  0  0  0  0  0
    4.5470   -6.9460   24.8440 N   0  0  0  0  0  0  0  0  0  0  0  0
    5.2050   -6.4930   23.7490 C   0  0  0  0  0  0  0  0  0  0  0  0
    6.2330   -7.0080   23.3200 O   0  0  0  0  0  0  0  0  0  0  0  0
    4.5870   -5.2510   23.1200 C   0  0  0  0  0  0  0  0  0  0  0  0
    5.1760   -4.0580   23.6810 N   0  0  0  0  0  0  0  0  0  0  0  0
    6.4860   -3.6400   23.2190 C   0  0  0  0  0  0  0  0  0  0  0  0
    6.5350   -2.1230   22.9560 C   0  0  2  0  0  0  0  0  0  0  0  0
    5.6980   -1.7830   21.7150 C   0  0  0  0  0  0  0  0  0  0  0  0
    4.6060   -2.2240   21.4250 O   0  0  0  0  0  0  0  0  0  0  0  0
    6.3920   -0.8730   20.9580 N   0  0  0  0  0  0  0  0  0  0  0  0
    5.8100   -0.2050   19.8640 C   0  0  0  0  0  0  0  0  0  0  0  0
    6.2860   -0.4510   18.6010 C   0  0  0  0  0  0  0  0  0  0  0  0
    5.8070    0.1180   17.4700 N   0  0  0  0  0  0  0  0  0  0  0  0
    4.8220    0.9750   17.6150 C   0  0  0  0  0  0  0  0  0  0  0  0
    4.2580    1.3400   18.8720 C   0  0  0  0  0  0  0  0  0  0  0  0
    3.2150    2.2960   18.9570 C   0  0  0  0  0  0  0  0  0  0  0  0
    2.6980    2.6540   20.1700 C   0  0  0  0  0  0  0  0  0  0  0  0
    3.2010    2.0760   21.3580 C   0  0  0  0  0  0  0  0  0  0  0  0
    4.2120    1.1470   21.3130 C   0  0  0  0  0  0  0  0  0  0  0  0
    4.7580    0.7460   20.0520 C   0  0  0  0  0  0  0  0  0  0  0  0
    4.5970    0.7340   22.2480 H   0  0  0  0  0  0  0  0  0  0  0  0
    2.7870    2.3850   22.3140 H   0  0  0  0  0  0  0  0  0  0  0  0
    1.9010    3.3900   20.2310 H   0  0  0  0  0  0  0  0  0  0  0  0
    2.8490    2.7440   18.0370 H   0  0  0  0  0  0  0  0  0  0  0  0
    4.4290    1.4490   16.7140 H   0  0  0  0  0  0  0  0  0  0  0  0
    7.0820   -1.1830   18.4690 H   0  0  0  0  0  0  0  0  0  0  0  0
    7.7420   -0.6220   21.3910 C   0  0  0  0  0  0  0  0  0  0  0  0
    7.9510   -1.5920   22.5700 C   0  0  2  0  0  0  0  0  0  0  0  0
    9.0050   -2.6570   22.2050 C   0  0  0  0  0  0  0  0  0  0  0  0
   10.2750   -2.0600   21.8840 N   0  0  0  0  0  0  0  0  0  0  0  0
   11.2310   -1.7050   22.8070 C   0  0  0  0  0  0  0  0  0  0  0  0
   12.4310   -1.1020   22.5810 C   0  0  0  0  0  0  0  0  0  0  0  0
   13.1900   -0.8140   23.6940 N   0  0  0  0  0  0  0  0  0  0  0  0
   12.5790   -1.1870   24.7760 C   0  0  0  0  0  0  0  0  0  0  0  0
   13.0400   -0.8150   26.1390 C   0  0  0  0  0  0  0  0  0  0  0  0
   12.7770    0.2340   26.2750 H   0  0  0  0  0  0  0  0  0  0  0  0
   14.1260   -0.8740   26.1740 H   0  0  0  0  0  0  0  0  0  0  0  0
   12.5770   -1.4090   26.9270 H   0  0  0  0  0  0  0  0  0  0  0  0
   11.0330   -1.9560   24.5170 S   0  0  0  0  0  0  0  0  0  0  0  0
   12.7590   -0.7750   21.6020 H   0  0  0  0  0  0  0  0  0  0  0  0
   10.5830   -2.0790   20.9250 H   0  0  0  0  0  0  0  0  0  0  0  0
    8.6700   -3.2350   21.3410 H   0  0  0  0  0  0  0  0  0  0  0  0
    9.1310   -3.3620   23.0300 H   0  0  0  0  0  0  0  0  0  0  0  0
    8.3730   -1.0670   23.4300 H   0  0  0  0  0  0  0  0  0  0  0  0
    7.8660    0.4280   21.6850 H   0  0  0  0  0  0  0  0  0  0  0  0
    8.4440   -0.8010   20.5710 H   0  0  0  0  0  0  0  0  0  0  0  0
    5.9390   -1.4270   24.1810 C   0  0  0  0  0  0  0  0  0  0  0  0
    6.2330   -0.0870   24.4560 C   0  0  0  0  0  0  0  0  0  0  0  0
    5.6850    0.5300   25.5700 C   0  0  0  0  0  0  0  0  0  0  0  0
    6.0880    2.1950   25.8900 Cl  0  0  0  0  0  0  0  0  0  0  0  0
    4.8190   -0.1380   26.4340 C   0  0  0  0  0  0  0  0  0  0  0  0
    4.4910   -1.4480   26.1460 C   0  0  0  0  0  0  0  0  0  0  0  0
    5.0350   -2.0790   25.0290 C   0  0  0  0  0  0  0  0  0  0  0  0
    4.5700   -3.4670   24.7460 C   0  0  0  0  0  0  0  0  0  0  0  0
    3.6840   -4.0170   25.3960 O   0  0  0  0  0  0  0  0  0  0  0  0
    3.8030   -2.0180   26.7630 H   0  0  0  0  0  0  0  0  0  0  0  0
    4.4020    0.3780   27.2930 H   0  0  0  0  0  0  0  0  0  0  0  0
    6.9020    0.4830   23.8160 H   0  0  0  0  0  0  0  0  0  0  0  0
    7.2410   -3.8970   23.9740 H   0  0  0  0  0  0  0  0  0  0  0  0
    6.7070   -4.1990   22.3100 H   0  0  0  0  0  0  0  0  0  0  0  0
    4.7660   -5.2590   22.0390 H   0  0  0  0  0  0  0  0  0  0  0  0
    3.5130   -5.2190   23.3240 H   0  0  0  0  0  0  0  0  0  0  0  0
    3.7900   -6.4110   25.2510 H   0  0  0  0  0  0  0  0  0  0  0  0
    4.3680   -8.4540   26.2990 H   0  0  0  0  0  0  0  0  0  0  0  0
    5.1020   -8.9360   24.7550 H   0  0  0  0  0  0  0  0  0  0  0  0
    6.0430   -7.9740   25.8910 H   0  0  0  0  0  0  0  0  0  0  0  0
  1  2  1  0  0  0  0
  1 65  1  0  0  0  0
  1 66  1  0  0  0  0
  1 67  1  0  0  0  0
  2  3  1  0  0  0  0
  2 64  1  0  0  0  0
  3  4  2  0  0  0  0
  3  5  1  0  0  0  0
  5  6  1  0  0  0  0
  5 62  1  0  0  0  0
  5 63  1  0  0  0  0
  6  7  1  0  0  0  0
  6 55  1  0  0  0  0
  7  8  1  0  0  0  0
  7 60  1  0  0  0  0
  7 61  1  0  0  0  0
  8  9  1  6  0  0  0
  8 29  1  0  0  0  0
  8 48  1  0  0  0  0
  9 10  2  0  0  0  0
  9 11  1  0  0  0  0
 11 12  1  0  0  0  0
 11 28  1  0  0  0  0
 12 13  2  0  0  0  0
 12 21  1  0  0  0  0
 13 14  1  0  0  0  0
 13 27  1  0  0  0  0
 14 15  2  0  0  0  0
 15 16  1  0  0  0  0
 15 26  1  0  0  0  0
 16 17  2  0  0  0  0
 16 21  1  0  0  0  0
 17 18  1  0  0  0  0
 17 25  1  0  0  0  0
 18 19  2  0  0  0  0
 18 24  1  0  0  0  0
 19 20  1  0  0  0  0
 19 23  1  0  0  0  0
 20 21  2  0  0  0  0
 20 22  1  0  0  0  0
 28 29  1  0  0  0  0
 28 46  1  0  0  0  0
 28 47  1  0  0  0  0
 29 30  1  0  0  0  0
 29 45  1  1  0  0  0
 30 31  1  0  0  0  0
 30 43  1  0  0  0  0
 30 44  1  0  0  0  0
 31 32  1  0  0  0  0
 31 42  1  0  0  0  0
 32 33  2  0  0  0  0
 32 40  1  0  0  0  0
 33 34  1  0  0  0  0
 33 41  1  0  0  0  0
 34 35  2  0  0  0  0
 35 36  1  0  0  0  0
 35 40  1  0  0  0  0
 36 37  1  0  0  0  0
 36 38  1  0  0  0  0
 36 39  1  0  0  0  0
 48 49  2  0  0  0  0
 48 54  1  0  0  0  0
 49 50  1  0  0  0  0
 49 59  1  0  0  0  0
 50 51  1  0  0  0  0
 50 52  2  0  0  0  0
 52 53  1  0  0  0  0
 52 58  1  0  0  0  0
 53 54  2  0  0  0  0
 53 57  1  0  0  0  0
 54 55  1  0  0  0  0
 55 56  2  0  0  0  0
M  END
>  <MODEL>
       1

$$$$
best_conformers_57.pdb
 OpenBabel02042510453D

 67 72  0  0  1  0  0  0  0  0999 V2000
    5.0070   -8.1460   25.4630 C   0  0  0  0  0  0  0  0  0  0  0  0
    4.5280   -6.9420   24.8250 N   0  0  0  0  0  0  0  0  0  0  0  0
    5.1970   -6.4940   23.7360 C   0  0  0  0  0  0  0  0  0  0  0  0
    6.2180   -7.0190   23.3080 O   0  0  0  0  0  0  0  0  0  0  0  0
    4.5780   -5.2500   23.1070 C   0  0  0  0  0  0  0  0  0  0  0  0
    5.1680   -4.0590   23.6700 N   0  0  0  0  0  0  0  0  0  0  0  0
    6.4750   -3.6420   23.2150 C   0  0  0  0  0  0  0  0  0  0  0  0
    6.5060   -2.1280   22.9470 C   0  0  2  0  0  0  0  0  0  0  0  0
    5.6740   -1.7980   21.6950 C   0  0  0  0  0  0  0  0  0  0  0  0
    4.5920   -2.2510   21.3890 O   0  0  0  0  0  0  0  0  0  0  0  0
    6.3730   -0.8770   20.9510 N   0  0  0  0  0  0  0  0  0  0  0  0
    5.8020   -0.2090   19.8560 C   0  0  0  0  0  0  0  0  0  0  0  0
    6.2880   -0.4540   18.5990 C   0  0  0  0  0  0  0  0  0  0  0  0
    5.8160    0.1200   17.4680 N   0  0  0  0  0  0  0  0  0  0  0  0
    4.8290    0.9740   17.6180 C   0  0  0  0  0  0  0  0  0  0  0  0
    4.2570    1.3370   18.8720 C   0  0  0  0  0  0  0  0  0  0  0  0
    3.2150    2.2950   18.9570 C   0  0  0  0  0  0  0  0  0  0  0  0
    2.6980    2.6500   20.1700 C   0  0  0  0  0  0  0  0  0  0  0  0
    3.2030    2.0740   21.3590 C   0  0  0  0  0  0  0  0  0  0  0  0
    4.2150    1.1470   21.3140 C   0  0  0  0  0  0  0  0  0  0  0  0
    4.7560    0.7430   20.0520 C   0  0  0  0  0  0  0  0  0  0  0  0
    4.5980    0.7280   22.2480 H   0  0  0  0  0  0  0  0  0  0  0  0
    2.7870    2.3850   22.3140 H   0  0  0  0  0  0  0  0  0  0  0  0
    1.9050    3.3900   20.2270 H   0  0  0  0  0  0  0  0  0  0  0  0
    2.8540    2.7390   18.0320 H   0  0  0  0  0  0  0  0  0  0  0  0
    4.4340    1.4410   16.7160 H   0  0  0  0  0  0  0  0  0  0  0  0
    7.0930   -1.1780   18.4720 H   0  0  0  0  0  0  0  0  0  0  0  0
    7.7230   -0.6240   21.3880 C   0  0  0  0  0  0  0  0  0  0  0  0
    7.9120   -1.6200   22.5440 C   0  0  2  0  0  0  0  0  0  0  0  0
    8.8640   -2.7400   22.1130 C   0  0  0  0  0  0  0  0  0  0  0  0
   10.1410   -2.1950   21.7580 N   0  0  0  0  0  0  0  0  0  0  0  0
   10.9470   -1.7890   22.7790 C   0  0  0  0  0  0  0  0  0  0  0  0
   10.7410   -1.8770   24.1320 C   0  0  0  0  0  0  0  0  0  0  0  0
   11.7530   -1.4030   24.9290 N   0  0  0  0  0  0  0  0  0  0  0  0
   12.7130   -0.9490   24.1950 C   0  0  0  0  0  0  0  0  0  0  0  0
   13.9920   -0.4150   24.6930 C   0  0  0  0  0  0  0  0  0  0  0  0
   13.9650   -0.2640   25.7770 H   0  0  0  0  0  0  0  0  0  0  0  0
   14.7640   -1.1560   24.4900 H   0  0  0  0  0  0  0  0  0  0  0  0
   14.2170    0.4930   24.1240 H   0  0  0  0  0  0  0  0  0  0  0  0
   12.4810   -1.0270   22.4710 S   0  0  0  0  0  0  0  0  0  0  0  0
    9.8410   -2.2660   24.5990 H   0  0  0  0  0  0  0  0  0  0  0  0
   10.4850   -2.1910   20.8090 H   0  0  0  0  0  0  0  0  0  0  0  0
    8.4630   -3.3260   21.2870 H   0  0  0  0  0  0  0  0  0  0  0  0
    9.0470   -3.4270   22.9450 H   0  0  0  0  0  0  0  0  0  0  0  0
    8.3930   -1.1270   23.3940 H   0  0  0  0  0  0  0  0  0  0  0  0
    8.4340   -0.7940   20.5720 H   0  0  0  0  0  0  0  0  0  0  0  0
    7.8540    0.4220   21.6990 H   0  0  0  0  0  0  0  0  0  0  0  0
    5.9330   -1.4360   24.1790 C   0  0  0  0  0  0  0  0  0  0  0  0
    6.2350   -0.1010   24.4590 C   0  0  0  0  0  0  0  0  0  0  0  0
    5.6860    0.5140   25.5740 C   0  0  0  0  0  0  0  0  0  0  0  0
    6.0890    2.1710   25.9050 Cl  0  0  0  0  0  0  0  0  0  0  0  0
    4.8220   -0.1530   26.4380 C   0  0  0  0  0  0  0  0  0  0  0  0
    4.4970   -1.4610   26.1480 C   0  0  0  0  0  0  0  0  0  0  0  0
    5.0350   -2.0910   25.0300 C   0  0  0  0  0  0  0  0  0  0  0  0
    4.5670   -3.4770   24.7380 C   0  0  0  0  0  0  0  0  0  0  0  0
    3.6860   -4.0470   25.3810 O   0  0  0  0  0  0  0  0  0  0  0  0
    3.8110   -2.0350   26.7580 H   0  0  0  0  0  0  0  0  0  0  0  0
    4.4060    0.3540   27.3020 H   0  0  0  0  0  0  0  0  0  0  0  0
    6.8980    0.4730   23.8210 H   0  0  0  0  0  0  0  0  0  0  0  0
    7.2420   -3.8960   23.9620 H   0  0  0  0  0  0  0  0  0  0  0  0
    6.6930   -4.2030   22.3090 H   0  0  0  0  0  0  0  0  0  0  0  0
    3.5010   -5.2070   23.2930 H   0  0  0  0  0  0  0  0  0  0  0  0
    4.7650   -5.2430   22.0290 H   0  0  0  0  0  0  0  0  0  0  0  0
    3.7960   -6.3760   25.2320 H   0  0  0  0  0  0  0  0  0  0  0  0
    5.0560   -8.9250   24.7010 H   0  0  0  0  0  0  0  0  0  0  0  0
    4.3150   -8.4520   26.2500 H   0  0  0  0  0  0  0  0  0  0  0  0
    6.0150   -8.0030   25.8740 H   0  0  0  0  0  0  0  0  0  0  0  0
  1  2  1  0  0  0  0
  1 65  1  0  0  0  0
  1 66  1  0  0  0  0
  1 67  1  0  0  0  0
  2  3  1  0  0  0  0
  2 64  1  0  0  0  0
  3  4  2  0  0  0  0
  3  5  1  0  0  0  0
  5  6  1  0  0  0  0
  5 62  1  0  0  0  0
  5 63  1  0  0  0  0
  6  7  1  0  0  0  0
  6 55  1  0  0  0  0
  7  8  1  0  0  0  0
  7 60  1  0  0  0  0
  7 61  1  0  0  0  0
  8  9  1  6  0  0  0
  8 29  1  0  0  0  0
  8 48  1  0  0  0  0
  9 10  2  0  0  0  0
  9 11  1  0  0  0  0
 11 12  1  0  0  0  0
 11 28  1  0  0  0  0
 12 13  2  0  0  0  0
 12 21  1  0  0  0  0
 13 14  1  0  0  0  0
 13 27  1  0  0  0  0
 14 15  2  0  0  0  0
 15 16  1  0  0  0  0
 15 26  1  0  0  0  0
 16 17  2  0  0  0  0
 16 21  1  0  0  0  0
 17 18  1  0  0  0  0
 17 25  1  0  0  0  0
 18 19  2  0  0  0  0
 18 24  1  0  0  0  0
 19 20  1  0  0  0  0
 19 23  1  0  0  0  0
 20 21  2  0  0  0  0
 20 22  1  0  0  0  0
 28 29  1  0  0  0  0
 28 46  1  0  0  0  0
 28 47  1  0  0  0  0
 29 30  1  0  0  0  0
 29 45  1  1  0  0  0
 30 31  1  0  0  0  0
 30 43  1  0  0  0  0
 30 44  1  0  0  0  0
 31 32  1  0  0  0  0
 31 42  1  0  0  0  0
 32 33  2  0  0  0  0
 32 40  1  0  0  0  0
 33 34  1  0  0  0  0
 33 41  1  0  0  0  0
 34 35  2  0  0  0  0
 35 36  1  0  0  0  0
 35 40  1  0  0  0  0
 36 37  1  0  0  0  0
 36 38  1  0  0  0  0
 36 39  1  0  0  0  0
 48 49  2  0  0  0  0
 48 54  1  0  0  0  0
 49 50  1  0  0  0  0
 49 59  1  0  0  0  0
 50 51  1  0  0  0  0
 50 52  2  0  0  0  0
 52 53  1  0  0  0  0
 52 58  1  0  0  0  0
 53 54  2  0  0  0  0
 53 57  1  0  0  0  0
 54 55  1  0  0  0  0
 55 56  2  0  0  0  0
M  END
>  <MODEL>
       2

$$$$
best_conformers_57.pdb
 OpenBabel02042510453D

 67 72  0  0  1  0  0  0  0  0999 V2000
    5.0100   -8.1140   25.5480 C   0  0  0  0  0  0  0  0  0  0  0  0
    4.5060   -6.9530   24.8530 N   0  0  0  0  0  0  0  0  0  0  0  0
    5.1840   -6.4930   23.7690 C   0  0  0  0  0  0  0  0  0  0  0  0
    6.2130   -7.0080   23.3540 O   0  0  0  0  0  0  0  0  0  0  0  0
    4.5760   -5.2500   23.1300 C   0  0  0  0  0  0  0  0  0  0  0  0
    5.1360   -4.0440   23.6880 N   0  0  0  0  0  0  0  0  0  0  0  0
    6.4600   -3.6310   23.2610 C   0  0  0  0  0  0  0  0  0  0  0  0
    6.5200   -2.1210   22.9680 C   0  0  2  0  0  0  0  0  0  0  0  0
    5.6990   -1.7870   21.7150 C   0  0  0  0  0  0  0  0  0  0  0  0
    4.6010   -2.2180   21.4250 O   0  0  0  0  0  0  0  0  0  0  0  0
    6.4020   -0.8880   20.9540 N   0  0  0  0  0  0  0  0  0  0  0  0
    5.8130   -0.2100   19.8620 C   0  0  0  0  0  0  0  0  0  0  0  0
    6.2840   -0.4530   18.5970 C   0  0  0  0  0  0  0  0  0  0  0  0
    5.8040    0.1220   17.4680 N   0  0  0  0  0  0  0  0  0  0  0  0
    4.8210    0.9800   17.6150 C   0  0  0  0  0  0  0  0  0  0  0  0
    4.2560    1.3420   18.8720 C   0  0  0  0  0  0  0  0  0  0  0  0
    3.2120    2.2980   18.9590 C   0  0  0  0  0  0  0  0  0  0  0  0
    2.6950    2.6560   20.1710 C   0  0  0  0  0  0  0  0  0  0  0  0
    3.2000    2.0750   21.3570 C   0  0  0  0  0  0  0  0  0  0  0  0
    4.2090    1.1450   21.3100 C   0  0  0  0  0  0  0  0  0  0  0  0
    4.7590    0.7430   20.0510 C   0  0  0  0  0  0  0  0  0  0  0  0
    4.5930    0.7300   22.2450 H   0  0  0  0  0  0  0  0  0  0  0  0
    2.7850    2.3790   22.3150 H   0  0  0  0  0  0  0  0  0  0  0  0
    1.8950    3.3910   20.2350 H   0  0  0  0  0  0  0  0  0  0  0  0
    2.8460    2.7470   18.0410 H   0  0  0  0  0  0  0  0  0  0  0  0
    4.4270    1.4520   16.7140 H   0  0  0  0  0  0  0  0  0  0  0  0
    7.0800   -1.1850   18.4570 H   0  0  0  0  0  0  0  0  0  0  0  0
    7.7370   -0.6090   21.4290 C   0  0  0  0  0  0  0  0  0  0  0  0
    7.9440   -1.5940   22.6030 C   0  0  2  0  0  0  0  0  0  0  0  0
    9.0140   -2.6410   22.2100 C   0  0  0  0  0  0  0  0  0  0  0  0
    9.4860   -3.4540   23.3040 N   0  0  0  0  0  0  0  0  0  0  0  0
   10.3080   -3.0170   24.3120 C   0  0  0  0  0  0  0  0  0  0  0  0
   10.6950   -3.6860   25.4370 C   0  0  0  0  0  0  0  0  0  0  0  0
   11.5990   -3.0390   26.2480 N   0  0  0  0  0  0  0  0  0  0  0  0
   11.9000   -1.8830   25.7490 C   0  0  0  0  0  0  0  0  0  0  0  0
   12.8850   -0.9290   26.3180 C   0  0  0  0  0  0  0  0  0  0  0  0
   13.8720   -1.1010   25.8740 H   0  0  0  0  0  0  0  0  0  0  0  0
   12.9470   -1.0710   27.3950 H   0  0  0  0  0  0  0  0  0  0  0  0
   12.5970    0.0970   26.1000 H   0  0  0  0  0  0  0  0  0  0  0  0
   11.0930   -1.4720   24.2590 S   0  0  0  0  0  0  0  0  0  0  0  0
   10.3450   -4.6750   25.6930 H   0  0  0  0  0  0  0  0  0  0  0  0
    9.2790   -4.4390   23.2930 H   0  0  0  0  0  0  0  0  0  0  0  0
    8.6260   -3.3040   21.4300 H   0  0  0  0  0  0  0  0  0  0  0  0
    9.8640   -2.1030   21.7690 H   0  0  0  0  0  0  0  0  0  0  0  0
    8.3550   -1.0910   23.4820 H   0  0  0  0  0  0  0  0  0  0  0  0
    7.8210    0.4440   21.7350 H   0  0  0  0  0  0  0  0  0  0  0  0
    8.4630   -0.7620   20.6210 H   0  0  0  0  0  0  0  0  0  0  0  0
    5.9120   -1.4080   24.1790 C   0  0  0  0  0  0  0  0  0  0  0  0
    6.2310   -0.0740   24.4640 C   0  0  0  0  0  0  0  0  0  0  0  0
    5.6590    0.5570   25.5590 C   0  0  0  0  0  0  0  0  0  0  0  0
    6.0780    2.2170   25.8920 Cl  0  0  0  0  0  0  0  0  0  0  0  0
    4.7520   -0.0950   26.3940 C   0  0  0  0  0  0  0  0  0  0  0  0
    4.4050   -1.3990   26.0990 C   0  0  0  0  0  0  0  0  0  0  0  0
    4.9690   -2.0430   25.0010 C   0  0  0  0  0  0  0  0  0  0  0  0
    4.4970   -3.4320   24.7220 C   0  0  0  0  0  0  0  0  0  0  0  0
    3.5850   -3.9640   25.3530 O   0  0  0  0  0  0  0  0  0  0  0  0
    3.6890   -1.9600   26.6940 H   0  0  0  0  0  0  0  0  0  0  0  0
    4.3200    0.4330   27.2370 H   0  0  0  0  0  0  0  0  0  0  0  0
    6.9380    0.4820   23.8520 H   0  0  0  0  0  0  0  0  0  0  0  0
    7.1820   -3.8650   24.0490 H   0  0  0  0  0  0  0  0  0  0  0  0
    6.6970   -4.2090   22.3670 H   0  0  0  0  0  0  0  0  0  0  0  0
    3.5000   -5.2180   23.3090 H   0  0  0  0  0  0  0  0  0  0  0  0
    4.7910   -5.2650   22.0560 H   0  0  0  0  0  0  0  0  0  0  0  0
    3.7460   -6.4140   25.2390 H   0  0  0  0  0  0  0  0  0  0  0  0
    6.0130   -7.9210   25.9370 H   0  0  0  0  0  0  0  0  0  0  0  0
    4.3460   -8.3940   26.3690 H   0  0  0  0  0  0  0  0  0  0  0  0
    5.0880   -8.9470   24.8510 H   0  0  0  0  0  0  0  0  0  0  0  0
  1  2  1  0  0  0  0
  1 65  1  0  0  0  0
  1 66  1  0  0  0  0
  1 67  1  0  0  0  0
  2  3  1  0  0  0  0
  2 64  1  0  0  0  0
  3  4  2  0  0  0  0
  3  5  1  0  0  0  0
  5  6  1  0  0  0  0
  5 62  1  0  0  0  0
  5 63  1  0  0  0  0
  6  7  1  0  0  0  0
  6 55  1  0  0  0  0
  7  8  1  0  0  0  0
  7 60  1  0  0  0  0
  7 61  1  0  0  0  0
  8  9  1  6  0  0  0
  8 29  1  0  0  0  0
  8 48  1  0  0  0  0
  9 10  2  0  0  0  0
  9 11  1  0  0  0  0
 11 12  1  0  0  0  0
 11 28  1  0  0  0  0
 12 13  2  0  0  0  0
 12 21  1  0  0  0  0
 13 14  1  0  0  0  0
 13 27  1  0  0  0  0
 14 15  2  0  0  0  0
 15 16  1  0  0  0  0
 15 26  1  0  0  0  0
 16 17  2  0  0  0  0
 16 21  1  0  0  0  0
 17 18  1  0  0  0  0
 17 25  1  0  0  0  0
 18 19  2  0  0  0  0
 18 24  1  0  0  0  0
 19 20  1  0  0  0  0
 19 23  1  0  0  0  0
 20 21  2  0  0  0  0
 20 22  1  0  0  0  0
 28 29  1  0  0  0  0
 28 46  1  0  0  0  0
 28 47  1  0  0  0  0
 29 30  1  0  0  0  0
 29 45  1  1  0  0  0
 30 31  1  0  0  0  0
 30 43  1  0  0  0  0
 30 44  1  0  0  0  0
 31 32  1  0  0  0  0
 31 42  1  0  0  0  0
 32 33  2  0  0  0  0
 32 40  1  0  0  0  0
 33 34  1  0  0  0  0
 33 41  1  0  0  0  0
 34 35  2  0  0  0  0
 35 36  1  0  0  0  0
 35 40  1  0  0  0  0
 36 37  1  0  0  0  0
 36 38  1  0  0  0  0
 36 39  1  0  0  0  0
 48 49  2  0  0  0  0
 48 54  1  0  0  0  0
 49 50  1  0  0  0  0
 49 59  1  0  0  0  0
 50 51  1  0  0  0  0
 50 52  2  0  0  0  0
 52 53  1  0  0  0  0
 52 58  1  0  0  0  0
 53 54  2  0  0  0  0
 53 57  1  0  0  0  0
 54 55  1  0  0  0  0
 55 56  2  0  0  0  0
M  END
>  <MODEL>
       3

$$$$
