best_conformers_43.pdb
 OpenBabel02042510453D

 62 67  0  0  1  0  0  0  0  0999 V2000
    1.3130   -6.7670   24.1800 C   0  0  0  0  0  0  0  0  0  0  0  0
    2.3540   -7.4970   23.3250 C   0  0  0  0  0  0  0  0  0  0  0  0
    3.6920   -7.4690   23.9020 N   0  0  0  0  0  0  0  0  0  0  0  0
    4.0730   -8.4740   24.7080 N   0  0  0  0  0  0  0  0  0  0  0  0
    5.2790   -8.1340   25.1470 C   0  0  0  0  0  0  0  0  0  0  0  0
    5.6780   -6.8940   24.6230 C   0  0  0  0  0  0  0  0  0  0  0  0
    4.6250   -6.4760   23.8460 C   0  0  0  0  0  0  0  0  0  0  0  0
    4.4990   -5.2070   23.0410 C   0  0  0  0  0  0  0  0  0  0  0  0
    5.1570   -4.0580   23.6380 N   0  0  0  0  0  0  0  0  0  0  0  0
    6.4780   -3.6500   23.2070 C   0  0  0  0  0  0  0  0  0  0  0  0
    6.5520   -2.1260   22.9780 C   0  0  2  0  0  0  0  0  0  0  0  0
    5.6830   -1.7380   21.7650 C   0  0  0  0  0  0  0  0  0  0  0  0
    4.5480   -2.1100   21.5400 O   0  0  0  0  0  0  0  0  0  0  0  0
    6.3940   -0.8760   20.9610 N   0  0  0  0  0  0  0  0  0  0  0  0
    5.8000   -0.2090   19.8550 C   0  0  0  0  0  0  0  0  0  0  0  0
    6.2520   -0.4610   18.5820 C   0  0  0  0  0  0  0  0  0  0  0  0
    5.7790    0.1350   17.4610 N   0  0  0  0  0  0  0  0  0  0  0  0
    4.8040    1.0020   17.6060 C   0  0  0  0  0  0  0  0  0  0  0  0
    4.2370    1.3660   18.8590 C   0  0  0  0  0  0  0  0  0  0  0  0
    3.1890    2.3240   18.9540 C   0  0  0  0  0  0  0  0  0  0  0  0
    2.6740    2.6710   20.1750 C   0  0  0  0  0  0  0  0  0  0  0  0
    3.1980    2.0860   21.3540 C   0  0  0  0  0  0  0  0  0  0  0  0
    4.2160    1.1630   21.2870 C   0  0  0  0  0  0  0  0  0  0  0  0
    4.7490    0.7570   20.0280 C   0  0  0  0  0  0  0  0  0  0  0  0
    4.6020    0.7200   22.2040 H   0  0  0  0  0  0  0  0  0  0  0  0
    2.7850    2.3690   22.3190 H   0  0  0  0  0  0  0  0  0  0  0  0
    1.8730    3.4030   20.2490 H   0  0  0  0  0  0  0  0  0  0  0  0
    2.8130    2.7780   18.0400 H   0  0  0  0  0  0  0  0  0  0  0  0
    4.4150    1.4600   16.7000 H   0  0  0  0  0  0  0  0  0  0  0  0
    7.0460   -1.1890   18.4250 H   0  0  0  0  0  0  0  0  0  0  0  0
    7.7490   -0.6210   21.4100 C   0  0  0  0  0  0  0  0  0  0  0  0
    7.9770   -1.6170   22.5770 C   0  0  2  0  0  0  0  0  0  0  0  0
    8.9950   -2.7000   22.1650 C   0  0  0  0  0  0  0  0  0  0  0  0
    9.2040   -3.4030   22.9790 H   0  0  0  0  0  0  0  0  0  0  0  0
    8.6440   -3.2820   21.3050 H   0  0  0  0  0  0  0  0  0  0  0  0
    9.9510   -2.2360   21.8830 H   0  0  0  0  0  0  0  0  0  0  0  0
    8.4220   -1.1000   23.4370 H   0  0  0  0  0  0  0  0  0  0  0  0
    8.4610   -0.7880   20.5920 H   0  0  0  0  0  0  0  0  0  0  0  0
    7.8760    0.4260   21.7280 H   0  0  0  0  0  0  0  0  0  0  0  0
    5.9950   -1.4450   24.2260 C   0  0  0  0  0  0  0  0  0  0  0  0
    6.2980   -0.1070   24.5030 C   0  0  0  0  0  0  0  0  0  0  0  0
    5.7390    0.5010   25.6100 C   0  0  0  0  0  0  0  0  0  0  0  0
    6.0520    1.7810   25.8770 F   0  0  0  0  0  0  0  0  0  0  0  0
    4.8640   -0.1520   26.4660 C   0  0  0  0  0  0  0  0  0  0  0  0
    4.5280   -1.4580   26.1700 C   0  0  0  0  0  0  0  0  0  0  0  0
    5.0680   -2.0970   25.0530 C   0  0  0  0  0  0  0  0  0  0  0  0
    4.5490   -3.4580   24.7000 C   0  0  0  0  0  0  0  0  0  0  0  0
    3.6170   -3.9940   25.2860 O   0  0  0  0  0  0  0  0  0  0  0  0
    3.8210   -2.0040   26.7800 H   0  0  0  0  0  0  0  0  0  0  0  0
    4.4600    0.3820   27.3190 H   0  0  0  0  0  0  0  0  0  0  0  0
    6.9520    0.4910   23.8760 H   0  0  0  0  0  0  0  0  0  0  0  0
    6.7000   -4.1690   22.2760 H   0  0  0  0  0  0  0  0  0  0  0  0
    7.2370   -3.9300   23.9580 H   0  0  0  0  0  0  0  0  0  0  0  0
    4.9640   -5.3330   22.0570 H   0  0  0  0  0  0  0  0  0  0  0  0
    3.4440   -4.9530   22.8680 H   0  0  0  0  0  0  0  0  0  0  0  0
    6.6010   -6.3520   24.7640 H   0  0  0  0  0  0  0  0  0  0  0  0
    5.8130   -8.7900   25.8220 H   0  0  0  0  0  0  0  0  0  0  0  0
    2.4180   -7.0540   22.3270 H   0  0  0  0  0  0  0  0  0  0  0  0
    2.0990   -8.5570   23.2060 H   0  0  0  0  0  0  0  0  0  0  0  0
    1.5820   -5.7120   24.3300 H   0  0  0  0  0  0  0  0  0  0  0  0
    1.2190   -7.2440   25.1620 H   0  0  0  0  0  0  0  0  0  0  0  0
    0.3340   -6.8090   23.6870 H   0  0  0  0  0  0  0  0  0  0  0  0
  1  2  1  0  0  0  0
  1 60  1  0  0  0  0
  1 61  1  0  0  0  0
  1 62  1  0  0  0  0
  2  3  1  0  0  0  0
  2 58  1  0  0  0  0
  2 59  1  0  0  0  0
  3  4  1  0  0  0  0
  3  7  1  0  0  0  0
  4  5  2  0  0  0  0
  5  6  1  0  0  0  0
  5 57  1  0  0  0  0
  6  7  2  0  0  0  0
  6 56  1  0  0  0  0
  7  8  1  0  0  0  0
  8  9  1  0  0  0  0
  8 54  1  0  0  0  0
  8 55  1  0  0  0  0
  9 10  1  0  0  0  0
  9 47  1  0  0  0  0
 10 11  1  0  0  0  0
 10 52  1  0  0  0  0
 10 53  1  0  0  0  0
 11 12  1  6  0  0  0
 11 32  1  0  0  0  0
 11 40  1  0  0  0  0
 12 13  2  0  0  0  0
 12 14  1  0  0  0  0
 14 15  1  0  0  0  0
 14 31  1  0  0  0  0
 15 16  2  0  0  0  0
 15 24  1  0  0  0  0
 16 17  1  0  0  0  0
 16 30  1  0  0  0  0
 17 18  2  0  0  0  0
 18 19  1  0  0  0  0
 18 29  1  0  0  0  0
 19 20  2  0  0  0  0
 19 24  1  0  0  0  0
 20 21  1  0  0  0  0
 20 28  1  0  0  0  0
 21 22  2  0  0  0  0
 21 27  1  0  0  0  0
 22 23  1  0  0  0  0
 22 26  1  0  0  0  0
 23 24  2  0  0  0  0
 23 25  1  0  0  0  0
 31 32  1  0  0  0  0
 31 38  1  0  0  0  0
 31 39  1  0  0  0  0
 32 33  1  0  0  0  0
 32 37  1  1  0  0  0
 33 34  1  0  0  0  0
 33 35  1  0  0  0  0
 33 36  1  0  0  0  0
 40 41  2  0  0  0  0
 40 46  1  0  0  0  0
 41 42  1  0  0  0  0
 41 51  1  0  0  0  0
 42 43  1  0  0  0  0
 42 44  2  0  0  0  0
 44 45  1  0  0  0  0
 44 50  1  0  0  0  0
 45 46  2  0  0  0  0
 45 49  1  0  0  0  0
 46 47  1  0  0  0  0
 47 48  2  0  0  0  0
M  END
>  <MODEL>
       1

$$$$
best_conformers_43.pdb
 OpenBabel02042510453D

 62 67  0  0  1  0  0  0  0  0999 V2000
    7.2390    1.5430   27.7380 C   0  0  0  0  0  0  0  0  0  0  0  0
    6.2890    0.5590   28.4180 C   0  0  0  0  0  0  0  0  0  0  0  0
    5.0690    0.3460   27.6640 N   0  0  0  0  0  0  0  0  0  0  0  0
    4.1020    1.2730   27.7180 N   0  0  0  0  0  0  0  0  0  0  0  0
    3.1640    0.8470   26.8830 C   0  0  0  0  0  0  0  0  0  0  0  0
    3.5290   -0.3710   26.2800 C   0  0  0  0  0  0  0  0  0  0  0  0
    4.7760   -0.6600   26.7990 C   0  0  0  0  0  0  0  0  0  0  0  0
    5.7190   -1.7720   26.4420 C   0  0  0  0  0  0  0  0  0  0  0  0
    6.8010   -1.3770   25.5420 N   0  0  0  0  0  0  0  0  0  0  0  0
    6.4580   -0.7190   24.2940 C   0  0  0  0  0  0  0  0  0  0  0  0
    7.4160   -1.0700   23.1320 C   0  0  2  0  0  0  0  0  0  0  0  0
    7.0970   -0.1010   21.9810 C   0  0  0  0  0  0  0  0  0  0  0  0
    7.3180    1.0950   21.9500 O   0  0  0  0  0  0  0  0  0  0  0  0
    6.4550   -0.7970   20.9770 N   0  0  0  0  0  0  0  0  0  0  0  0
    5.8490   -0.1520   19.8660 C   0  0  0  0  0  0  0  0  0  0  0  0
    6.2580   -0.4570   18.5930 C   0  0  0  0  0  0  0  0  0  0  0  0
    5.7680    0.1150   17.4650 N   0  0  0  0  0  0  0  0  0  0  0  0
    4.8060    0.9970   17.6100 C   0  0  0  0  0  0  0  0  0  0  0  0
    4.2400    1.3670   18.8600 C   0  0  0  0  0  0  0  0  0  0  0  0
    3.1790    2.3100   18.9540 C   0  0  0  0  0  0  0  0  0  0  0  0
    2.6290    2.6230   20.1680 C   0  0  0  0  0  0  0  0  0  0  0  0
    3.1130    1.9980   21.3420 C   0  0  0  0  0  0  0  0  0  0  0  0
    4.1420    1.0920   21.2740 C   0  0  0  0  0  0  0  0  0  0  0  0
    4.7570    0.7660   20.0320 C   0  0  0  0  0  0  0  0  0  0  0  0
    4.5000    0.6250   22.1860 H   0  0  0  0  0  0  0  0  0  0  0  0
    2.6750    2.2520   22.3040 H   0  0  0  0  0  0  0  0  0  0  0  0
    1.8240    3.3520   20.2390 H   0  0  0  0  0  0  0  0  0  0  0  0
    2.8180    2.7780   18.0400 H   0  0  0  0  0  0  0  0  0  0  0  0
    4.4220    1.4580   16.7010 H   0  0  0  0  0  0  0  0  0  0  0  0
    7.0410   -1.1970   18.4330 H   0  0  0  0  0  0  0  0  0  0  0  0
    6.2390   -2.2000   21.2820 C   0  0  0  0  0  0  0  0  0  0  0  0
    7.1640   -2.4740   22.4800 C   0  0  2  0  0  0  0  0  0  0  0  0
    6.6380   -3.5860   23.3950 C   0  0  0  0  0  0  0  0  0  0  0  0
    6.5740   -4.5410   22.8570 H   0  0  0  0  0  0  0  0  0  0  0  0
    7.2880   -3.7280   24.2650 H   0  0  0  0  0  0  0  0  0  0  0  0
    5.6320   -3.3530   23.7690 H   0  0  0  0  0  0  0  0  0  0  0  0
    8.1480   -2.7820   22.0940 H   0  0  0  0  0  0  0  0  0  0  0  0
    6.4820   -2.8140   20.4120 H   0  0  0  0  0  0  0  0  0  0  0  0
    5.1840   -2.4000   21.5310 H   0  0  0  0  0  0  0  0  0  0  0  0
    8.8410   -0.9250   23.6280 C   0  0  0  0  0  0  0  0  0  0  0  0
    9.8780   -0.6890   22.7210 C   0  0  0  0  0  0  0  0  0  0  0  0
   11.1780   -0.6280   23.1830 C   0  0  0  0  0  0  0  0  0  0  0  0
   12.1650   -0.3810   22.3070 F   0  0  0  0  0  0  0  0  0  0  0  0
   11.5080   -0.8160   24.5200 C   0  0  0  0  0  0  0  0  0  0  0  0
   10.4840   -1.0840   25.4100 C   0  0  0  0  0  0  0  0  0  0  0  0
    9.1590   -1.1450   24.9740 C   0  0  0  0  0  0  0  0  0  0  0  0
    8.0980   -1.5460   25.9490 C   0  0  0  0  0  0  0  0  0  0  0  0
    8.3760   -2.0210   27.0370 O   0  0  0  0  0  0  0  0  0  0  0  0
   10.6890   -1.2820   26.4560 H   0  0  0  0  0  0  0  0  0  0  0  0
   12.5510   -0.7660   24.8180 H   0  0  0  0  0  0  0  0  0  0  0  0
    9.6880   -0.5380   21.6650 H   0  0  0  0  0  0  0  0  0  0  0  0
    6.4930    0.3750   24.4130 H   0  0  0  0  0  0  0  0  0  0  0  0
    5.4340   -1.0180   24.0390 H   0  0  0  0  0  0  0  0  0  0  0  0
    5.1150   -2.5500   25.9560 H   0  0  0  0  0  0  0  0  0  0  0  0
    6.1990   -2.2230   27.3160 H   0  0  0  0  0  0  0  0  0  0  0  0
    2.9980   -0.9560   25.5400 H   0  0  0  0  0  0  0  0  0  0  0  0
    2.2790    1.4600   26.7530 H   0  0  0  0  0  0  0  0  0  0  0  0
    6.7580   -0.4230   28.5410 H   0  0  0  0  0  0  0  0  0  0  0  0
    5.9800    0.9320   29.4020 H   0  0  0  0  0  0  0  0  0  0  0  0
    8.1460    1.6310   28.3430 H   0  0  0  0  0  0  0  0  0  0  0  0
    6.7800    2.5350   27.6570 H   0  0  0  0  0  0  0  0  0  0  0  0
    7.5230    1.2060   26.7340 H   0  0  0  0  0  0  0  0  0  0  0  0
  1  2  1  0  0  0  0
  1 60  1  0  0  0  0
  1 61  1  0  0  0  0
  1 62  1  0  0  0  0
  2  3  1  0  0  0  0
  2 58  1  0  0  0  0
  2 59  1  0  0  0  0
  3  4  1  0  0  0  0
  3  7  1  0  0  0  0
  4  5  2  0  0  0  0
  5  6  1  0  0  0  0
  5 57  1  0  0  0  0
  6  7  2  0  0  0  0
  6 56  1  0  0  0  0
  7  8  1  0  0  0  0
  8  9  1  0  0  0  0
  8 54  1  0  0  0  0
  8 55  1  0  0  0  0
  9 10  1  0  0  0  0
  9 47  1  0  0  0  0
 10 11  1  0  0  0  0
 10 52  1  0  0  0  0
 10 53  1  0  0  0  0
 11 12  1  6  0  0  0
 11 32  1  0  0  0  0
 11 40  1  0  0  0  0
 12 13  2  0  0  0  0
 12 14  1  0  0  0  0
 14 15  1  0  0  0  0
 14 31  1  0  0  0  0
 15 16  2  0  0  0  0
 15 24  1  0  0  0  0
 16 17  1  0  0  0  0
 16 30  1  0  0  0  0
 17 18  2  0  0  0  0
 18 19  1  0  0  0  0
 18 29  1  0  0  0  0
 19 20  2  0  0  0  0
 19 24  1  0  0  0  0
 20 21  1  0  0  0  0
 20 28  1  0  0  0  0
 21 22  2  0  0  0  0
 21 27  1  0  0  0  0
 22 23  1  0  0  0  0
 22 26  1  0  0  0  0
 23 24  2  0  0  0  0
 23 25  1  0  0  0  0
 31 32  1  0  0  0  0
 31 38  1  0  0  0  0
 31 39  1  0  0  0  0
 32 33  1  0  0  0  0
 32 37  1  6  0  0  0
 33 34  1  0  0  0  0
 33 35  1  0  0  0  0
 33 36  1  0  0  0  0
 40 41  2  0  0  0  0
 40 46  1  0  0  0  0
 41 42  1  0  0  0  0
 41 51  1  0  0  0  0
 42 43  1  0  0  0  0
 42 44  2  0  0  0  0
 44 45  1  0  0  0  0
 44 50  1  0  0  0  0
 45 46  2  0  0  0  0
 45 49  1  0  0  0  0
 46 47  1  0  0  0  0
 47 48  2  0  0  0  0
M  END
>  <MODEL>
       2

$$$$
best_conformers_43.pdb
 OpenBabel02042510453D

 62 67  0  0  1  0  0  0  0  0999 V2000
    6.7890   -8.0760   22.4600 C   0  0  0  0  0  0  0  0  0  0  0  0
    6.7760   -7.2380   23.7270 C   0  0  0  0  0  0  0  0  0  0  0  0
    5.4430   -7.2390   24.2990 N   0  0  0  0  0  0  0  0  0  0  0  0
    5.0970   -8.2850   25.0660 N   0  0  0  0  0  0  0  0  0  0  0  0
    3.8160   -8.0890   25.3520 C   0  0  0  0  0  0  0  0  0  0  0  0
    3.3200   -6.9300   24.7230 C   0  0  0  0  0  0  0  0  0  0  0  0
    4.3940   -6.4210   24.0220 C   0  0  0  0  0  0  0  0  0  0  0  0
    4.5040   -5.2170   23.1220 C   0  0  0  0  0  0  0  0  0  0  0  0
    5.1970   -4.0790   23.7130 N   0  0  0  0  0  0  0  0  0  0  0  0
    6.4880   -3.6250   23.2290 C   0  0  0  0  0  0  0  0  0  0  0  0
    6.5430   -2.1030   22.9570 C   0  0  2  0  0  0  0  0  0  0  0  0
    5.7060   -1.7870   21.7060 C   0  0  0  0  0  0  0  0  0  0  0  0
    4.6210   -2.2560   21.4170 O   0  0  0  0  0  0  0  0  0  0  0  0
    6.4000   -0.8860   20.9400 N   0  0  0  0  0  0  0  0  0  0  0  0
    5.8090   -0.2110   19.8530 C   0  0  0  0  0  0  0  0  0  0  0  0
    6.2860   -0.4510   18.5910 C   0  0  0  0  0  0  0  0  0  0  0  0
    5.8100    0.1220   17.4610 N   0  0  0  0  0  0  0  0  0  0  0  0
    4.8230    0.9770   17.6100 C   0  0  0  0  0  0  0  0  0  0  0  0
    4.2550    1.3370   18.8680 C   0  0  0  0  0  0  0  0  0  0  0  0
    3.2130    2.2960   18.9530 C   0  0  0  0  0  0  0  0  0  0  0  0
    2.6980    2.6490   20.1680 C   0  0  0  0  0  0  0  0  0  0  0  0
    3.2020    2.0690   21.3550 C   0  0  0  0  0  0  0  0  0  0  0  0
    4.2110    1.1380   21.3070 C   0  0  0  0  0  0  0  0  0  0  0  0
    4.7570    0.7390   20.0460 C   0  0  0  0  0  0  0  0  0  0  0  0
    4.5900    0.7140   22.2380 H   0  0  0  0  0  0  0  0  0  0  0  0
    2.7920    2.3820   22.3120 H   0  0  0  0  0  0  0  0  0  0  0  0
    1.9060    3.3900   20.2280 H   0  0  0  0  0  0  0  0  0  0  0  0
    2.8490    2.7440   18.0310 H   0  0  0  0  0  0  0  0  0  0  0  0
    4.4300    1.4500   16.7090 H   0  0  0  0  0  0  0  0  0  0  0  0
    7.0890   -1.1750   18.4660 H   0  0  0  0  0  0  0  0  0  0  0  0
    7.7410   -0.6000   21.3980 C   0  0  0  0  0  0  0  0  0  0  0  0
    7.9700   -1.5930   22.5600 C   0  0  2  0  0  0  0  0  0  0  0  0
    8.9750   -2.6790   22.1640 C   0  0  0  0  0  0  0  0  0  0  0  0
    9.1680   -3.3630   22.9940 H   0  0  0  0  0  0  0  0  0  0  0  0
    9.9310   -2.2270   21.8860 H   0  0  0  0  0  0  0  0  0  0  0  0
    8.6250   -3.2650   21.3110 H   0  0  0  0  0  0  0  0  0  0  0  0
    8.4090   -1.0750   23.4190 H   0  0  0  0  0  0  0  0  0  0  0  0
    7.8280    0.4480   21.7170 H   0  0  0  0  0  0  0  0  0  0  0  0
    8.4600   -0.7410   20.5820 H   0  0  0  0  0  0  0  0  0  0  0  0
    5.9710   -1.3880   24.1780 C   0  0  0  0  0  0  0  0  0  0  0  0
    6.3020   -0.0640   24.4900 C   0  0  0  0  0  0  0  0  0  0  0  0
    5.7420    0.5280   25.6080 C   0  0  0  0  0  0  0  0  0  0  0  0
    6.0740    1.7940   25.9060 F   0  0  0  0  0  0  0  0  0  0  0  0
    4.8520   -0.1230   26.4510 C   0  0  0  0  0  0  0  0  0  0  0  0
    4.5040   -1.4150   26.1230 C   0  0  0  0  0  0  0  0  0  0  0  0
    5.0390   -2.0340   24.9980 C   0  0  0  0  0  0  0  0  0  0  0  0
    4.5150   -3.3870   24.6680 C   0  0  0  0  0  0  0  0  0  0  0  0
    3.5050   -3.8330   25.2090 O   0  0  0  0  0  0  0  0  0  0  0  0
    3.8010   -1.9880   26.7130 H   0  0  0  0  0  0  0  0  0  0  0  0
    4.4350    0.3830   27.3160 H   0  0  0  0  0  0  0  0  0  0  0  0
    7.0030    0.5130   23.8960 H   0  0  0  0  0  0  0  0  0  0  0  0
    6.7250   -4.1550   22.3050 H   0  0  0  0  0  0  0  0  0  0  0  0
    7.2700   -3.8550   23.9630 H   0  0  0  0  0  0  0  0  0  0  0  0
    5.0110   -5.4680   22.1820 H   0  0  0  0  0  0  0  0  0  0  0  0
    3.5040   -4.8750   22.8460 H   0  0  0  0  0  0  0  0  0  0  0  0
    2.3370   -6.4780   24.7940 H   0  0  0  0  0  0  0  0  0  0  0  0
    3.2870   -8.8220   25.9530 H   0  0  0  0  0  0  0  0  0  0  0  0
    7.4310   -7.6300   24.5130 H   0  0  0  0  0  0  0  0  0  0  0  0
    7.0920   -6.2090   23.5290 H   0  0  0  0  0  0  0  0  0  0  0  0
    7.6200   -7.7860   21.8400 H   0  0  0  0  0  0  0  0  0  0  0  0
    5.8870   -7.8860   21.8610 H   0  0  0  0  0  0  0  0  0  0  0  0
    6.8890   -9.1390   22.6860 H   0  0  0  0  0  0  0  0  0  0  0  0
  1  2  1  0  0  0  0
  1 60  1  0  0  0  0
  1 61  1  0  0  0  0
  1 62  1  0  0  0  0
  2  3  1  0  0  0  0
  2 58  1  0  0  0  0
  2 59  1  0  0  0  0
  3  4  1  0  0  0  0
  3  7  1  0  0  0  0
  4  5  2  0  0  0  0
  5  6  1  0  0  0  0
  5 57  1  0  0  0  0
  6  7  2  0  0  0  0
  6 56  1  0  0  0  0
  7  8  1  0  0  0  0
  8  9  1  0  0  0  0
  8 54  1  0  0  0  0
  8 55  1  0  0  0  0
  9 10  1  0  0  0  0
  9 47  1  0  0  0  0
 10 11  1  0  0  0  0
 10 52  1  0  0  0  0
 10 53  1  0  0  0  0
 11 12  1  6  0  0  0
 11 32  1  0  0  0  0
 11 40  1  0  0  0  0
 12 13  2  0  0  0  0
 12 14  1  0  0  0  0
 14 15  1  0  0  0  0
 14 31  1  0  0  0  0
 15 16  2  0  0  0  0
 15 24  1  0  0  0  0
 16 17  1  0  0  0  0
 16 30  1  0  0  0  0
 17 18  2  0  0  0  0
 18 19  1  0  0  0  0
 18 29  1  0  0  0  0
 19 20  2  0  0  0  0
 19 24  1  0  0  0  0
 20 21  1  0  0  0  0
 20 28  1  0  0  0  0
 21 22  2  0  0  0  0
 21 27  1  0  0  0  0
 22 23  1  0  0  0  0
 22 26  1  0  0  0  0
 23 24  2  0  0  0  0
 23 25  1  0  0  0  0
 31 32  1  0  0  0  0
 31 38  1  0  0  0  0
 31 39  1  0  0  0  0
 32 33  1  0  0  0  0
 32 37  1  1  0  0  0
 33 34  1  0  0  0  0
 33 35  1  0  0  0  0
 33 36  1  0  0  0  0
 40 41  2  0  0  0  0
 40 46  1  0  0  0  0
 41 42  1  0  0  0  0
 41 51  1  0  0  0  0
 42 43  1  0  0  0  0
 42 44  2  0  0  0  0
 44 45  1  0  0  0  0
 44 50  1  0  0  0  0
 45 46  2  0  0  0  0
 45 49  1  0  0  0  0
 46 47  1  0  0  0  0
 47 48  2  0  0  0  0
M  END
>  <MODEL>
       3

$$$$
best_conformers_43.pdb
 OpenBabel02042510453D

 62 67  0  0  1  0  0  0  0  0999 V2000
    5.0300   -3.6890   29.5520 C   0  0  0  0  0  0  0  0  0  0  0  0
    6.1860   -2.6860   29.4690 C   0  0  0  0  0  0  0  0  0  0  0  0
    5.7920   -1.4210   28.8580 N   0  0  0  0  0  0  0  0  0  0  0  0
    5.4010   -0.4040   29.6430 N   0  0  0  0  0  0  0  0  0  0  0  0
    4.9930    0.5420   28.8080 C   0  0  0  0  0  0  0  0  0  0  0  0
    5.1140    0.1270   27.4680 C   0  0  0  0  0  0  0  0  0  0  0  0
    5.6530   -1.1390   27.5330 C   0  0  0  0  0  0  0  0  0  0  0  0
    5.9740   -2.0650   26.3930 C   0  0  0  0  0  0  0  0  0  0  0  0
    6.9610   -1.5290   25.4700 N   0  0  0  0  0  0  0  0  0  0  0  0
    6.5480   -0.7950   24.2880 C   0  0  0  0  0  0  0  0  0  0  0  0
    7.4880   -1.0740   23.0920 C   0  0  2  0  0  0  0  0  0  0  0  0
    7.1030   -0.0890   21.9730 C   0  0  0  0  0  0  0  0  0  0  0  0
    7.2890    1.1110   21.9650 O   0  0  0  0  0  0  0  0  0  0  0  0
    6.4570   -0.7870   20.9760 N   0  0  0  0  0  0  0  0  0  0  0  0
    5.8470   -0.1510   19.8630 C   0  0  0  0  0  0  0  0  0  0  0  0
    6.2570   -0.4560   18.5910 C   0  0  0  0  0  0  0  0  0  0  0  0
    5.7680    0.1160   17.4620 N   0  0  0  0  0  0  0  0  0  0  0  0
    4.8060    0.9980   17.6080 C   0  0  0  0  0  0  0  0  0  0  0  0
    4.2390    1.3670   18.8590 C   0  0  0  0  0  0  0  0  0  0  0  0
    3.1780    2.3110   18.9550 C   0  0  0  0  0  0  0  0  0  0  0  0
    2.6300    2.6240   20.1670 C   0  0  0  0  0  0  0  0  0  0  0  0
    3.1140    1.9980   21.3410 C   0  0  0  0  0  0  0  0  0  0  0  0
    4.1410    1.0920   21.2720 C   0  0  0  0  0  0  0  0  0  0  0  0
    4.7550    0.7660   20.0310 C   0  0  0  0  0  0  0  0  0  0  0  0
    4.5010    0.6220   22.1820 H   0  0  0  0  0  0  0  0  0  0  0  0
    2.6760    2.2510   22.3030 H   0  0  0  0  0  0  0  0  0  0  0  0
    1.8260    3.3520   20.2390 H   0  0  0  0  0  0  0  0  0  0  0  0
    2.8180    2.7790   18.0390 H   0  0  0  0  0  0  0  0  0  0  0  0
    4.4200    1.4600   16.7000 H   0  0  0  0  0  0  0  0  0  0  0  0
    7.0420   -1.1940   18.4300 H   0  0  0  0  0  0  0  0  0  0  0  0
    6.2980   -2.2050   21.2560 C   0  0  0  0  0  0  0  0  0  0  0  0
    7.2720   -2.4760   22.4140 C   0  0  2  0  0  0  0  0  0  0  0  0
    6.8160   -3.6300   23.3170 C   0  0  0  0  0  0  0  0  0  0  0  0
    5.8220   -3.4350   23.7380 H   0  0  0  0  0  0  0  0  0  0  0  0
    6.7570   -4.5680   22.7530 H   0  0  0  0  0  0  0  0  0  0  0  0
    7.5050   -3.7780   24.1550 H   0  0  0  0  0  0  0  0  0  0  0  0
    8.2540   -2.7370   21.9930 H   0  0  0  0  0  0  0  0  0  0  0  0
    6.5310   -2.7860   20.3650 H   0  0  0  0  0  0  0  0  0  0  0  0
    5.2600   -2.4450   21.5380 H   0  0  0  0  0  0  0  0  0  0  0  0
    8.9190   -0.8800   23.5570 C   0  0  0  0  0  0  0  0  0  0  0  0
    9.9250   -0.6100   22.6240 C   0  0  0  0  0  0  0  0  0  0  0  0
   11.2320   -0.5030   23.0540 C   0  0  0  0  0  0  0  0  0  0  0  0
   12.1880   -0.2190   22.1550 F   0  0  0  0  0  0  0  0  0  0  0  0
   11.6010   -0.6780   24.3820 C   0  0  0  0  0  0  0  0  0  0  0  0
   10.6100   -0.9800   25.2990 C   0  0  0  0  0  0  0  0  0  0  0  0
    9.2790   -1.0890   24.8940 C   0  0  0  0  0  0  0  0  0  0  0  0
    8.2590   -1.5600   25.8810 C   0  0  0  0  0  0  0  0  0  0  0  0
    8.5630   -1.9970   26.9770 O   0  0  0  0  0  0  0  0  0  0  0  0
   10.8480   -1.1710   26.3400 H   0  0  0  0  0  0  0  0  0  0  0  0
   12.6470   -0.5920   24.6550 H   0  0  0  0  0  0  0  0  0  0  0  0
    9.7010   -0.4680   21.5720 H   0  0  0  0  0  0  0  0  0  0  0  0
    6.5840    0.2920   24.4620 H   0  0  0  0  0  0  0  0  0  0  0  0
    5.5210   -1.0900   24.0250 H   0  0  0  0  0  0  0  0  0  0  0  0
    5.0640   -2.2250   25.8090 H   0  0  0  0  0  0  0  0  0  0  0  0
    6.3120   -3.0410   26.7630 H   0  0  0  0  0  0  0  0  0  0  0  0
    4.8570    0.6420   26.5540 H   0  0  0  0  0  0  0  0  0  0  0  0
    4.6340    1.4850   29.2090 H   0  0  0  0  0  0  0  0  0  0  0  0
    6.5600   -2.4190   30.4660 H   0  0  0  0  0  0  0  0  0  0  0  0
    7.0240   -3.0710   28.8780 H   0  0  0  0  0  0  0  0  0  0  0  0
    4.2150   -3.2950   30.1690 H   0  0  0  0  0  0  0  0  0  0  0  0
    4.6300   -3.9230   28.5560 H   0  0  0  0  0  0  0  0  0  0  0  0
    5.3800   -4.6250   29.9930 H   0  0  0  0  0  0  0  0  0  0  0  0
  1  2  1  0  0  0  0
  1 60  1  0  0  0  0
  1 61  1  0  0  0  0
  1 62  1  0  0  0  0
  2  3  1  0  0  0  0
  2 58  1  0  0  0  0
  2 59  1  0  0  0  0
  3  4  1  0  0  0  0
  3  7  1  0  0  0  0
  4  5  2  0  0  0  0
  5  6  1  0  0  0  0
  5 57  1  0  0  0  0
  6  7  2  0  0  0  0
  6 56  1  0  0  0  0
  7  8  1  0  0  0  0
  8  9  1  0  0  0  0
  8 54  1  0  0  0  0
  8 55  1  0  0  0  0
  9 10  1  0  0  0  0
  9 47  1  0  0  0  0
 10 11  1  0  0  0  0
 10 52  1  0  0  0  0
 10 53  1  0  0  0  0
 11 12  1  6  0  0  0
 11 32  1  0  0  0  0
 11 40  1  0  0  0  0
 12 13  2  0  0  0  0
 12 14  1  0  0  0  0
 14 15  1  0  0  0  0
 14 31  1  0  0  0  0
 15 16  2  0  0  0  0
 15 24  1  0  0  0  0
 16 17  1  0  0  0  0
 16 30  1  0  0  0  0
 17 18  2  0  0  0  0
 18 19  1  0  0  0  0
 18 29  1  0  0  0  0
 19 20  2  0  0  0  0
 19 24  1  0  0  0  0
 20 21  1  0  0  0  0
 20 28  1  0  0  0  0
 21 22  2  0  0  0  0
 21 27  1  0  0  0  0
 22 23  1  0  0  0  0
 22 26  1  0  0  0  0
 23 24  2  0  0  0  0
 23 25  1  0  0  0  0
 31 32  1  0  0  0  0
 31 38  1  0  0  0  0
 31 39  1  0  0  0  0
 32 33  1  0  0  0  0
 32 37  1  6  0  0  0
 33 34  1  0  0  0  0
 33 35  1  0  0  0  0
 33 36  1  0  0  0  0
 40 41  2  0  0  0  0
 40 46  1  0  0  0  0
 41 42  1  0  0  0  0
 41 51  1  0  0  0  0
 42 43  1  0  0  0  0
 42 44  2  0  0  0  0
 44 45  1  0  0  0  0
 44 50  1  0  0  0  0
 45 46  2  0  0  0  0
 45 49  1  0  0  0  0
 46 47  1  0  0  0  0
 47 48  2  0  0  0  0
M  END
>  <MODEL>
       4

$$$$
best_conformers_43.pdb
 OpenBabel02042510453D

 62 67  0  0  1  0  0  0  0  0999 V2000
    5.8450   -0.1870   29.8580 C   0  0  0  0  0  0  0  0  0  0  0  0
    6.0610    0.5110   28.5130 C   0  0  0  0  0  0  0  0  0  0  0  0
    4.9530    0.3260   27.5870 N   0  0  0  0  0  0  0  0  0  0  0  0
    3.9280    1.1920   27.6130 N   0  0  0  0  0  0  0  0  0  0  0  0
    3.0370    0.7080   26.7590 C   0  0  0  0  0  0  0  0  0  0  0  0
    3.4870   -0.4910   26.1750 C   0  0  0  0  0  0  0  0  0  0  0  0
    4.7360   -0.7020   26.7260 C   0  0  0  0  0  0  0  0  0  0  0  0
    5.7310   -1.7820   26.4310 C   0  0  0  0  0  0  0  0  0  0  0  0
    6.8100   -1.3700   25.5380 N   0  0  0  0  0  0  0  0  0  0  0  0
    6.4630   -0.7140   24.2910 C   0  0  0  0  0  0  0  0  0  0  0  0
    7.4160   -1.0720   23.1300 C   0  0  2  0  0  0  0  0  0  0  0  0
    7.1000   -0.1020   21.9790 C   0  0  0  0  0  0  0  0  0  0  0  0
    7.3240    1.0910   21.9480 O   0  0  0  0  0  0  0  0  0  0  0  0
    6.4550   -0.7980   20.9750 N   0  0  0  0  0  0  0  0  0  0  0  0
    5.8480   -0.1520   19.8650 C   0  0  0  0  0  0  0  0  0  0  0  0
    6.2570   -0.4570   18.5910 C   0  0  0  0  0  0  0  0  0  0  0  0
    5.7670    0.1160   17.4640 N   0  0  0  0  0  0  0  0  0  0  0  0
    4.8050    0.9980   17.6080 C   0  0  0  0  0  0  0  0  0  0  0  0
    4.2390    1.3670   18.8590 C   0  0  0  0  0  0  0  0  0  0  0  0
    3.1780    2.3100   18.9530 C   0  0  0  0  0  0  0  0  0  0  0  0
    2.6280    2.6240   20.1680 C   0  0  0  0  0  0  0  0  0  0  0  0
    3.1130    1.9980   21.3410 C   0  0  0  0  0  0  0  0  0  0  0  0
    4.1420    1.0910   21.2730 C   0  0  0  0  0  0  0  0  0  0  0  0
    4.7560    0.7660   20.0310 C   0  0  0  0  0  0  0  0  0  0  0  0
    4.5000    0.6230   22.1850 H   0  0  0  0  0  0  0  0  0  0  0  0
    2.6750    2.2520   22.3030 H   0  0  0  0  0  0  0  0  0  0  0  0
    1.8230    3.3520   20.2400 H   0  0  0  0  0  0  0  0  0  0  0  0
    2.8160    2.7790   18.0400 H   0  0  0  0  0  0  0  0  0  0  0  0
    4.4200    1.4600   16.7000 H   0  0  0  0  0  0  0  0  0  0  0  0
    7.0400   -1.1960   18.4310 H   0  0  0  0  0  0  0  0  0  0  0  0
    6.2360   -2.2010   21.2830 C   0  0  0  0  0  0  0  0  0  0  0  0
    7.1560   -2.4760   22.4830 C   0  0  2  0  0  0  0  0  0  0  0  0
    6.6210   -3.5820   23.4010 C   0  0  0  0  0  0  0  0  0  0  0  0
    6.5610   -4.5400   22.8670 H   0  0  0  0  0  0  0  0  0  0  0  0
    7.2640   -3.7210   24.2770 H   0  0  0  0  0  0  0  0  0  0  0  0
    5.6130   -3.3450   23.7660 H   0  0  0  0  0  0  0  0  0  0  0  0
    8.1380   -2.7920   22.1010 H   0  0  0  0  0  0  0  0  0  0  0  0
    5.1800   -2.3990   21.5300 H   0  0  0  0  0  0  0  0  0  0  0  0
    6.4800   -2.8170   20.4160 H   0  0  0  0  0  0  0  0  0  0  0  0
    8.8430   -0.9320   23.6200 C   0  0  0  0  0  0  0  0  0  0  0  0
    9.8790   -0.7080   22.7110 C   0  0  0  0  0  0  0  0  0  0  0  0
   11.1800   -0.6530   23.1690 C   0  0  0  0  0  0  0  0  0  0  0  0
   12.1660   -0.4170   22.2900 F   0  0  0  0  0  0  0  0  0  0  0  0
   11.5150   -0.8370   24.5060 C   0  0  0  0  0  0  0  0  0  0  0  0
   10.4910   -1.0910   25.3990 C   0  0  0  0  0  0  0  0  0  0  0  0
    9.1650   -1.1420   24.9660 C   0  0  0  0  0  0  0  0  0  0  0  0
    8.1060   -1.5310   25.9430 C   0  0  0  0  0  0  0  0  0  0  0  0
    8.3880   -1.9990   27.0350 O   0  0  0  0  0  0  0  0  0  0  0  0
   10.6980   -1.2840   26.4460 H   0  0  0  0  0  0  0  0  0  0  0  0
   12.5590   -0.7920   24.8010 H   0  0  0  0  0  0  0  0  0  0  0  0
    9.6860   -0.5620   21.6540 H   0  0  0  0  0  0  0  0  0  0  0  0
    6.5010    0.3780   24.4100 H   0  0  0  0  0  0  0  0  0  0  0  0
    5.4360   -1.0090   24.0410 H   0  0  0  0  0  0  0  0  0  0  0  0
    5.1750   -2.6080   25.9680 H   0  0  0  0  0  0  0  0  0  0  0  0
    6.2020   -2.1750   27.3370 H   0  0  0  0  0  0  0  0  0  0  0  0
    3.0050   -1.1140   25.4320 H   0  0  0  0  0  0  0  0  0  0  0  0
    2.1150    1.2570   26.6050 H   0  0  0  0  0  0  0  0  0  0  0  0
    6.9600    0.1370   28.0130 H   0  0  0  0  0  0  0  0  0  0  0  0
    6.1510    1.5970   28.6330 H   0  0  0  0  0  0  0  0  0  0  0  0
    5.7420   -1.2730   29.7270 H   0  0  0  0  0  0  0  0  0  0  0  0
    6.7000   -0.0100   30.5180 H   0  0  0  0  0  0  0  0  0  0  0  0
    4.9520    0.1980   30.3600 H   0  0  0  0  0  0  0  0  0  0  0  0
  1  2  1  0  0  0  0
  1 60  1  0  0  0  0
  1 61  1  0  0  0  0
  1 62  1  0  0  0  0
  2  3  1  0  0  0  0
  2 58  1  0  0  0  0
  2 59  1  0  0  0  0
  3  4  1  0  0  0  0
  3  7  1  0  0  0  0
  4  5  2  0  0  0  0
  5  6  1  0  0  0  0
  5 57  1  0  0  0  0
  6  7  2  0  0  0  0
  6 56  1  0  0  0  0
  7  8  1  0  0  0  0
  8  9  1  0  0  0  0
  8 54  1  0  0  0  0
  8 55  1  0  0  0  0
  9 10  1  0  0  0  0
  9 47  1  0  0  0  0
 10 11  1  0  0  0  0
 10 52  1  0  0  0  0
 10 53  1  0  0  0  0
 11 12  1  6  0  0  0
 11 32  1  0  0  0  0
 11 40  1  0  0  0  0
 12 13  2  0  0  0  0
 12 14  1  0  0  0  0
 14 15  1  0  0  0  0
 14 31  1  0  0  0  0
 15 16  2  0  0  0  0
 15 24  1  0  0  0  0
 16 17  1  0  0  0  0
 16 30  1  0  0  0  0
 17 18  2  0  0  0  0
 18 19  1  0  0  0  0
 18 29  1  0  0  0  0
 19 20  2  0  0  0  0
 19 24  1  0  0  0  0
 20 21  1  0  0  0  0
 20 28  1  0  0  0  0
 21 22  2  0  0  0  0
 21 27  1  0  0  0  0
 22 23  1  0  0  0  0
 22 26  1  0  0  0  0
 23 24  2  0  0  0  0
 23 25  1  0  0  0  0
 31 32  1  0  0  0  0
 31 38  1  0  0  0  0
 31 39  1  0  0  0  0
 32 33  1  0  0  0  0
 32 37  1  6  0  0  0
 33 34  1  0  0  0  0
 33 35  1  0  0  0  0
 33 36  1  0  0  0  0
 40 41  2  0  0  0  0
 40 46  1  0  0  0  0
 41 42  1  0  0  0  0
 41 51  1  0  0  0  0
 42 43  1  0  0  0  0
 42 44  2  0  0  0  0
 44 45  1  0  0  0  0
 44 50  1  0  0  0  0
 45 46  2  0  0  0  0
 45 49  1  0  0  0  0
 46 47  1  0  0  0  0
 47 48  2  0  0  0  0
M  END
>  <MODEL>
       5

$$$$
best_conformers_43.pdb
 OpenBabel02042510453D

 62 67  0  0  1  0  0  0  0  0999 V2000
    5.7980   -4.8020   28.4490 C   0  0  0  0  0  0  0  0  0  0  0  0
    6.0060   -4.5550   26.9540 C   0  0  0  0  0  0  0  0  0  0  0  0
    4.9110   -3.7980   26.3710 N   0  0  0  0  0  0  0  0  0  0  0  0
    3.8430   -4.4880   25.9400 N   0  0  0  0  0  0  0  0  0  0  0  0
    2.9950   -3.5720   25.5070 C   0  0  0  0  0  0  0  0  0  0  0  0
    3.5200   -2.2700   25.6570 C   0  0  0  0  0  0  0  0  0  0  0  0
    4.7740   -2.4560   26.2080 C   0  0  0  0  0  0  0  0  0  0  0  0
    5.8550   -1.4780   26.5630 C   0  0  0  0  0  0  0  0  0  0  0  0
    6.8990   -1.3500   25.5490 N   0  0  0  0  0  0  0  0  0  0  0  0
    6.5100   -0.7220   24.2950 C   0  0  0  0  0  0  0  0  0  0  0  0
    7.4500   -1.0740   23.1150 C   0  0  2  0  0  0  0  0  0  0  0  0
    7.1020   -0.1000   21.9720 C   0  0  0  0  0  0  0  0  0  0  0  0
    7.3190    1.0930   21.9490 O   0  0  0  0  0  0  0  0  0  0  0  0
    6.4520   -0.7950   20.9750 N   0  0  0  0  0  0  0  0  0  0  0  0
    5.8450   -0.1520   19.8640 C   0  0  0  0  0  0  0  0  0  0  0  0
    6.2570   -0.4570   18.5920 C   0  0  0  0  0  0  0  0  0  0  0  0
    5.7700    0.1150   17.4630 N   0  0  0  0  0  0  0  0  0  0  0  0
    4.8070    0.9970   17.6080 C   0  0  0  0  0  0  0  0  0  0  0  0
    4.2410    1.3670   18.8610 C   0  0  0  0  0  0  0  0  0  0  0  0
    3.1780    2.3100   18.9550 C   0  0  0  0  0  0  0  0  0  0  0  0
    2.6310    2.6210   20.1670 C   0  0  0  0  0  0  0  0  0  0  0  0
    3.1140    1.9980   21.3410 C   0  0  0  0  0  0  0  0  0  0  0  0
    4.1410    1.0930   21.2750 C   0  0  0  0  0  0  0  0  0  0  0  0
    4.7550    0.7670   20.0320 C   0  0  0  0  0  0  0  0  0  0  0  0
    4.5010    0.6250   22.1850 H   0  0  0  0  0  0  0  0  0  0  0  0
    2.6750    2.2500   22.3020 H   0  0  0  0  0  0  0  0  0  0  0  0
    1.8250    3.3490   20.2380 H   0  0  0  0  0  0  0  0  0  0  0  0
    2.8190    2.7770   18.0400 H   0  0  0  0  0  0  0  0  0  0  0  0
    4.4200    1.4590   16.6990 H   0  0  0  0  0  0  0  0  0  0  0  0
    7.0420   -1.1960   18.4360 H   0  0  0  0  0  0  0  0  0  0  0  0
    6.2530   -2.2020   21.2720 C   0  0  0  0  0  0  0  0  0  0  0  0
    7.2020   -2.4780   22.4500 C   0  0  2  0  0  0  0  0  0  0  0  0
    6.7040   -3.5980   23.3610 C   0  0  0  0  0  0  0  0  0  0  0  0
    7.3590   -3.7240   24.2300 H   0  0  0  0  0  0  0  0  0  0  0  0
    5.6940   -3.3820   23.7260 H   0  0  0  0  0  0  0  0  0  0  0  0
    6.6680   -4.5510   22.8240 H   0  0  0  0  0  0  0  0  0  0  0  0
    8.1820   -2.7670   22.0400 H   0  0  0  0  0  0  0  0  0  0  0  0
    6.4830   -2.8080   20.3950 H   0  0  0  0  0  0  0  0  0  0  0  0
    5.2060   -2.4050   21.5450 H   0  0  0  0  0  0  0  0  0  0  0  0
    8.8870   -0.9180   23.5760 C   0  0  0  0  0  0  0  0  0  0  0  0
    9.9050   -0.6970   22.6400 C   0  0  0  0  0  0  0  0  0  0  0  0
   11.2170   -0.6450   23.0670 C   0  0  0  0  0  0  0  0  0  0  0  0
   12.1850   -0.4080   22.1680 F   0  0  0  0  0  0  0  0  0  0  0  0
   11.5770   -0.8300   24.3980 C   0  0  0  0  0  0  0  0  0  0  0  0
   10.5740   -1.0830   25.3160 C   0  0  0  0  0  0  0  0  0  0  0  0
    9.2390   -1.1280   24.9120 C   0  0  0  0  0  0  0  0  0  0  0  0
    8.2050   -1.5070   25.9160 C   0  0  0  0  0  0  0  0  0  0  0  0
    8.5320   -1.9860   26.9920 O   0  0  0  0  0  0  0  0  0  0  0  0
   10.7930   -1.2770   26.3630 H   0  0  0  0  0  0  0  0  0  0  0  0
   12.6240   -0.7900   24.6760 H   0  0  0  0  0  0  0  0  0  0  0  0
    9.6850   -0.5550   21.5870 H   0  0  0  0  0  0  0  0  0  0  0  0
    6.5160    0.3770   24.3900 H   0  0  0  0  0  0  0  0  0  0  0  0
    5.4870   -1.0470   24.0690 H   0  0  0  0  0  0  0  0  0  0  0  0
    6.3600   -1.7580   27.4900 H   0  0  0  0  0  0  0  0  0  0  0  0
    5.3690   -0.5090   26.7300 H   0  0  0  0  0  0  0  0  0  0  0  0
    3.0710   -1.3180   25.3930 H   0  0  0  0  0  0  0  0  0  0  0  0
    2.0490   -3.9160   25.1000 H   0  0  0  0  0  0  0  0  0  0  0  0
    6.0090   -5.4720   26.3530 H   0  0  0  0  0  0  0  0  0  0  0  0
    6.9370   -4.0030   26.7750 H   0  0  0  0  0  0  0  0  0  0  0  0
    4.8960   -5.3910   28.6380 H   0  0  0  0  0  0  0  0  0  0  0  0
    6.6500   -5.3260   28.8770 H   0  0  0  0  0  0  0  0  0  0  0  0
    5.7120   -3.8530   28.9920 H   0  0  0  0  0  0  0  0  0  0  0  0
  1  2  1  0  0  0  0
  1 60  1  0  0  0  0
  1 61  1  0  0  0  0
  1 62  1  0  0  0  0
  2  3  1  0  0  0  0
  2 58  1  0  0  0  0
  2 59  1  0  0  0  0
  3  4  1  0  0  0  0
  3  7  1  0  0  0  0
  4  5  2  0  0  0  0
  5  6  1  0  0  0  0
  5 57  1  0  0  0  0
  6  7  2  0  0  0  0
  6 56  1  0  0  0  0
  7  8  1  0  0  0  0
  8  9  1  0  0  0  0
  8 54  1  0  0  0  0
  8 55  1  0  0  0  0
  9 10  1  0  0  0  0
  9 47  1  0  0  0  0
 10 11  1  0  0  0  0
 10 52  1  0  0  0  0
 10 53  1  0  0  0  0
 11 12  1  6  0  0  0
 11 32  1  0  0  0  0
 11 40  1  0  0  0  0
 12 13  2  0  0  0  0
 12 14  1  0  0  0  0
 14 15  1  0  0  0  0
 14 31  1  0  0  0  0
 15 16  2  0  0  0  0
 15 24  1  0  0  0  0
 16 17  1  0  0  0  0
 16 30  1  0  0  0  0
 17 18  2  0  0  0  0
 18 19  1  0  0  0  0
 18 29  1  0  0  0  0
 19 20  2  0  0  0  0
 19 24  1  0  0  0  0
 20 21  1  0  0  0  0
 20 28  1  0  0  0  0
 21 22  2  0  0  0  0
 21 27  1  0  0  0  0
 22 23  1  0  0  0  0
 22 26  1  0  0  0  0
 23 24  2  0  0  0  0
 23 25  1  0  0  0  0
 31 32  1  0  0  0  0
 31 38  1  0  0  0  0
 31 39  1  0  0  0  0
 32 33  1  0  0  0  0
 32 37  1  6  0  0  0
 33 34  1  0  0  0  0
 33 35  1  0  0  0  0
 33 36  1  0  0  0  0
 40 41  2  0  0  0  0
 40 46  1  0  0  0  0
 41 42  1  0  0  0  0
 41 51  1  0  0  0  0
 42 43  1  0  0  0  0
 42 44  2  0  0  0  0
 44 45  1  0  0  0  0
 44 50  1  0  0  0  0
 45 46  2  0  0  0  0
 45 49  1  0  0  0  0
 46 47  1  0  0  0  0
 47 48  2  0  0  0  0
M  END
>  <MODEL>
       6

$$$$
best_conformers_43.pdb
 OpenBabel02042510453D

 62 67  0  0  1  0  0  0  0  0999 V2000
    2.2320   -0.3820   25.3560 C   0  0  0  0  0  0  0  0  0  0  0  0
    2.5830   -0.6980   26.8110 C   0  0  0  0  0  0  0  0  0  0  0  0
    3.7740    0.0020   27.2790 N   0  0  0  0  0  0  0  0  0  0  0  0
    3.6160    1.1890   27.8880 N   0  0  0  0  0  0  0  0  0  0  0  0
    4.8420    1.6250   28.1320 C   0  0  0  0  0  0  0  0  0  0  0  0
    5.8100    0.7090   27.6710 C   0  0  0  0  0  0  0  0  0  0  0  0
    5.0890   -0.3180   27.1050 C   0  0  0  0  0  0  0  0  0  0  0  0
    5.6050   -1.5640   26.4310 C   0  0  0  0  0  0  0  0  0  0  0  0
    6.6950   -1.3170   25.5040 N   0  0  0  0  0  0  0  0  0  0  0  0
    6.4100   -0.6290   24.2650 C   0  0  0  0  0  0  0  0  0  0  0  0
    7.3690   -1.0620   23.1330 C   0  0  2  0  0  0  0  0  0  0  0  0
    7.1170   -0.1120   21.9500 C   0  0  0  0  0  0  0  0  0  0  0  0
    7.4000    1.0660   21.8840 O   0  0  0  0  0  0  0  0  0  0  0  0
    6.4470   -0.8080   20.9670 N   0  0  0  0  0  0  0  0  0  0  0  0
    5.8450   -0.1530   19.8610 C   0  0  0  0  0  0  0  0  0  0  0  0
    6.2590   -0.4580   18.5910 C   0  0  0  0  0  0  0  0  0  0  0  0
    5.7700    0.1140   17.4630 N   0  0  0  0  0  0  0  0  0  0  0  0
    4.8070    0.9960   17.6090 C   0  0  0  0  0  0  0  0  0  0  0  0
    4.2410    1.3670   18.8610 C   0  0  0  0  0  0  0  0  0  0  0  0
    3.1780    2.3090   18.9580 C   0  0  0  0  0  0  0  0  0  0  0  0
    2.6290    2.6200   20.1720 C   0  0  0  0  0  0  0  0  0  0  0  0
    3.1140    1.9980   21.3470 C   0  0  0  0  0  0  0  0  0  0  0  0
    4.1450    1.0950   21.2770 C   0  0  0  0  0  0  0  0  0  0  0  0
    4.7570    0.7680   20.0330 C   0  0  0  0  0  0  0  0  0  0  0  0
    4.5070    0.6260   22.1880 H   0  0  0  0  0  0  0  0  0  0  0  0
    2.6760    2.2440   22.3110 H   0  0  0  0  0  0  0  0  0  0  0  0
    1.8230    3.3490   20.2400 H   0  0  0  0  0  0  0  0  0  0  0  0
    2.8170    2.7760   18.0430 H   0  0  0  0  0  0  0  0  0  0  0  0
    4.4220    1.4570   16.7000 H   0  0  0  0  0  0  0  0  0  0  0  0
    7.0420   -1.1990   18.4370 H   0  0  0  0  0  0  0  0  0  0  0  0
    6.1500   -2.1880   21.3170 C   0  0  0  0  0  0  0  0  0  0  0  0
    7.0540   -2.4740   22.5260 C   0  0  2  0  0  0  0  0  0  0  0  0
    6.4700   -3.5300   23.4730 C   0  0  0  0  0  0  0  0  0  0  0  0
    5.4830   -3.2280   23.8450 H   0  0  0  0  0  0  0  0  0  0  0  0
    7.1140   -3.6810   24.3460 H   0  0  0  0  0  0  0  0  0  0  0  0
    6.3490   -4.4920   22.9640 H   0  0  0  0  0  0  0  0  0  0  0  0
    8.0230   -2.8410   22.1550 H   0  0  0  0  0  0  0  0  0  0  0  0
    5.0870   -2.3170   21.5770 H   0  0  0  0  0  0  0  0  0  0  0  0
    6.3610   -2.8470   20.4720 H   0  0  0  0  0  0  0  0  0  0  0  0
    8.7940   -0.9770   23.6450 C   0  0  0  0  0  0  0  0  0  0  0  0
    9.8580   -0.8490   22.7450 C   0  0  0  0  0  0  0  0  0  0  0  0
   11.1530   -0.8440   23.2230 C   0  0  0  0  0  0  0  0  0  0  0  0
   12.1660   -0.6990   22.3530 F   0  0  0  0  0  0  0  0  0  0  0  0
   11.4520   -0.9850   24.5730 C   0  0  0  0  0  0  0  0  0  0  0  0
   10.4010   -1.1450   25.4590 C   0  0  0  0  0  0  0  0  0  0  0  0
    9.0780   -1.1490   25.0050 C   0  0  0  0  0  0  0  0  0  0  0  0
    7.9720   -1.4400   25.9710 C   0  0  0  0  0  0  0  0  0  0  0  0
    8.1900   -1.8010   27.1140 O   0  0  0  0  0  0  0  0  0  0  0  0
   10.5840   -1.2990   26.5180 H   0  0  0  0  0  0  0  0  0  0  0  0
   12.4930   -0.9830   24.8830 H   0  0  0  0  0  0  0  0  0  0  0  0
    9.6920   -0.7410   21.6780 H   0  0  0  0  0  0  0  0  0  0  0  0
    5.3650   -0.8510   24.0040 H   0  0  0  0  0  0  0  0  0  0  0  0
    6.5260    0.4600   24.3820 H   0  0  0  0  0  0  0  0  0  0  0  0
    4.7950   -2.0790   25.8970 H   0  0  0  0  0  0  0  0  0  0  0  0
    6.0200   -2.2460   27.1780 H   0  0  0  0  0  0  0  0  0  0  0  0
    6.8870    0.7450   27.7310 H   0  0  0  0  0  0  0  0  0  0  0  0
    4.9700    2.5850   28.6230 H   0  0  0  0  0  0  0  0  0  0  0  0
    2.7520   -1.7720   26.9530 H   0  0  0  0  0  0  0  0  0  0  0  0
    1.7800   -0.3860   27.4890 H   0  0  0  0  0  0  0  0  0  0  0  0
    1.3290   -0.9290   25.0670 H   0  0  0  0  0  0  0  0  0  0  0  0
    3.0390   -0.6840   24.6770 H   0  0  0  0  0  0  0  0  0  0  0  0
    2.0500    0.6900   25.2180 H   0  0  0  0  0  0  0  0  0  0  0  0
  1  2  1  0  0  0  0
  1 60  1  0  0  0  0
  1 61  1  0  0  0  0
  1 62  1  0  0  0  0
  2  3  1  0  0  0  0
  2 58  1  0  0  0  0
  2 59  1  0  0  0  0
  3  4  1  0  0  0  0
  3  7  1  0  0  0  0
  4  5  2  0  0  0  0
  5  6  1  0  0  0  0
  5 57  1  0  0  0  0
  6  7  2  0  0  0  0
  6 56  1  0  0  0  0
  7  8  1  0  0  0  0
  8  9  1  0  0  0  0
  8 54  1  0  0  0  0
  8 55  1  0  0  0  0
  9 10  1  0  0  0  0
  9 47  1  0  0  0  0
 10 11  1  0  0  0  0
 10 52  1  0  0  0  0
 10 53  1  0  0  0  0
 11 12  1  6  0  0  0
 11 32  1  0  0  0  0
 11 40  1  0  0  0  0
 12 13  2  0  0  0  0
 12 14  1  0  0  0  0
 14 15  1  0  0  0  0
 14 31  1  0  0  0  0
 15 16  2  0  0  0  0
 15 24  1  0  0  0  0
 16 17  1  0  0  0  0
 16 30  1  0  0  0  0
 17 18  2  0  0  0  0
 18 19  1  0  0  0  0
 18 29  1  0  0  0  0
 19 20  2  0  0  0  0
 19 24  1  0  0  0  0
 20 21  1  0  0  0  0
 20 28  1  0  0  0  0
 21 22  2  0  0  0  0
 21 27  1  0  0  0  0
 22 23  1  0  0  0  0
 22 26  1  0  0  0  0
 23 24  2  0  0  0  0
 23 25  1  0  0  0  0
 31 32  1  0  0  0  0
 31 38  1  0  0  0  0
 31 39  1  0  0  0  0
 32 33  1  0  0  0  0
 32 37  1  6  0  0  0
 33 34  1  0  0  0  0
 33 35  1  0  0  0  0
 33 36  1  0  0  0  0
 40 41  2  0  0  0  0
 40 46  1  0  0  0  0
 41 42  1  0  0  0  0
 41 51  1  0  0  0  0
 42 43  1  0  0  0  0
 42 44  2  0  0  0  0
 44 45  1  0  0  0  0
 44 50  1  0  0  0  0
 45 46  2  0  0  0  0
 45 49  1  0  0  0  0
 46 47  1  0  0  0  0
 47 48  2  0  0  0  0
M  END
>  <MODEL>
       7

$$$$
