best_conformers_18.pdb
 OpenBabel02042510453D

 50 53  0  0  1  0  0  0  0  0999 V2000
    4.3900   -1.7970   29.6390 C   0  0  0  0  0  0  0  0  0  0  0  0
    4.9500   -1.4320   28.2660 C   0  0  1  0  0  0  0  0  0  0  0  0
    6.0500   -2.3980   27.8260 C   0  0  0  0  0  0  0  0  0  0  0  0
    6.6470   -1.9970   26.4790 C   0  0  0  0  0  0  0  0  0  0  0  0
    5.5960   -1.9550   25.3570 C   0  0  2  0  0  0  0  0  0  0  0  0
    5.1410   -3.3910   24.9960 C   0  0  0  0  0  0  0  0  0  0  0  0
    5.0500   -3.4900   23.4710 C   0  0  0  0  0  0  0  0  0  0  0  0
    5.7040   -2.2860   22.9740 N   0  0  0  0  0  0  0  0  0  0  0  0
    5.5960   -2.0340   21.6290 C   0  0  0  0  0  0  0  0  0  0  0  0
    4.9100   -2.7510   20.9160 O   0  0  0  0  0  0  0  0  0  0  0  0
    6.4230   -0.8850   21.0440 C   0  0  0  0  0  0  0  0  0  0  0  0
    5.7820   -0.2040   19.8620 C   0  0  0  0  0  0  0  0  0  0  0  0
    6.2320   -0.4620   18.5980 C   0  0  0  0  0  0  0  0  0  0  0  0
    5.7770    0.1200   17.4550 N   0  0  0  0  0  0  0  0  0  0  0  0
    4.8050    0.9920   17.5900 C   0  0  0  0  0  0  0  0  0  0  0  0
    4.2320    1.3600   18.8380 C   0  0  0  0  0  0  0  0  0  0  0  0
    3.1850    2.3130   18.9350 C   0  0  0  0  0  0  0  0  0  0  0  0
    2.6500    2.6360   20.1530 C   0  0  0  0  0  0  0  0  0  0  0  0
    3.1430    2.0270   21.3270 C   0  0  0  0  0  0  0  0  0  0  0  0
    4.1620    1.1080   21.2660 C   0  0  0  0  0  0  0  0  0  0  0  0
    4.7310    0.7470   20.0140 C   0  0  0  0  0  0  0  0  0  0  0  0
    4.5390    0.6580   22.1810 H   0  0  0  0  0  0  0  0  0  0  0  0
    2.7160    2.2960   22.2890 H   0  0  0  0  0  0  0  0  0  0  0  0
    1.8450    3.3650   20.2260 H   0  0  0  0  0  0  0  0  0  0  0  0
    2.8190    2.7810   18.0240 H   0  0  0  0  0  0  0  0  0  0  0  0
    4.4250    1.4590   16.6780 H   0  0  0  0  0  0  0  0  0  0  0  0
    7.0410   -1.1800   18.4530 H   0  0  0  0  0  0  0  0  0  0  0  0
    7.3750   -1.3290   20.7170 H   0  0  0  0  0  0  0  0  0  0  0  0
    6.6710   -0.1620   21.8260 H   0  0  0  0  0  0  0  0  0  0  0  0
    6.2240   -1.4300   24.0370 C   0  0  0  0  0  0  0  0  0  0  0  0
    7.3250   -1.4580   24.0830 H   0  0  0  0  0  0  0  0  0  0  0  0
    5.9450   -0.3860   23.8430 H   0  0  0  0  0  0  0  0  0  0  0  0
    5.5610   -4.3730   23.0670 H   0  0  0  0  0  0  0  0  0  0  0  0
    4.0340   -3.5450   23.0900 H   0  0  0  0  0  0  0  0  0  0  0  0
    5.9060   -4.0840   25.3610 H   0  0  0  0  0  0  0  0  0  0  0  0
    4.2050   -3.6660   25.4950 H   0  0  0  0  0  0  0  0  0  0  0  0
    4.4230   -1.0540   25.7980 C   0  0  0  0  0  0  0  0  0  0  0  0
    3.8610   -1.3650   27.1910 C   0  0  0  0  0  0  0  0  0  0  0  0
    3.3090   -2.3140   27.1820 H   0  0  0  0  0  0  0  0  0  0  0  0
    3.1240   -0.6000   27.4640 H   0  0  0  0  0  0  0  0  0  0  0  0
    4.7900   -0.0190   25.8100 H   0  0  0  0  0  0  0  0  0  0  0  0
    3.6300   -1.0920   25.0420 H   0  0  0  0  0  0  0  0  0  0  0  0
    7.1210   -1.0110   26.5690 H   0  0  0  0  0  0  0  0  0  0  0  0
    7.4470   -2.6890   26.1890 H   0  0  0  0  0  0  0  0  0  0  0  0
    5.6180   -3.4030   27.7500 H   0  0  0  0  0  0  0  0  0  0  0  0
    6.8360   -2.4560   28.5880 H   0  0  0  0  0  0  0  0  0  0  0  0
    5.3990   -0.4350   28.3450 H   0  0  0  0  0  0  0  0  0  0  0  0
    3.9120   -2.7820   29.6180 H   0  0  0  0  0  0  0  0  0  0  0  0
    3.6390   -1.0790   29.9830 H   0  0  0  0  0  0  0  0  0  0  0  0
    5.1790   -1.8370   30.3970 H   0  0  0  0  0  0  0  0  0  0  0  0
  1  2  1  0  0  0  0
  1 48  1  0  0  0  0
  1 49  1  0  0  0  0
  1 50  1  0  0  0  0
  2  3  1  0  0  0  0
  2 38  1  0  0  0  0
  2 47  1  1  0  0  0
  3  4  1  0  0  0  0
  3 45  1  0  0  0  0
  3 46  1  0  0  0  0
  4 43  1  0  0  0  0
  4 44  1  0  0  0  0
  5  4  1  1  0  0  0
  5  6  1  0  0  0  0
  5 30  1  0  0  0  0
  5 37  1  0  0  0  0
  6  7  1  0  0  0  0
  6 35  1  0  0  0  0
  6 36  1  0  0  0  0
  7  8  1  0  0  0  0
  7 33  1  0  0  0  0
  7 34  1  0  0  0  0
  8  9  1  0  0  0  0
  8 30  1  0  0  0  0
  9 10  2  0  0  0  0
  9 11  1  0  0  0  0
 11 12  1  0  0  0  0
 11 28  1  0  0  0  0
 11 29  1  0  0  0  0
 12 13  2  0  0  0  0
 12 21  1  0  0  0  0
 13 14  1  0  0  0  0
 13 27  1  0  0  0  0
 14 15  2  0  0  0  0
 15 16  1  0  0  0  0
 15 26  1  0  0  0  0
 16 17  2  0  0  0  0
 16 21  1  0  0  0  0
 17 18  1  0  0  0  0
 17 25  1  0  0  0  0
 18 19  2  0  0  0  0
 18 24  1  0  0  0  0
 19 20  1  0  0  0  0
 19 23  1  0  0  0  0
 20 21  2  0  0  0  0
 20 22  1  0  0  0  0
 30 31  1  0  0  0  0
 30 32  1  0  0  0  0
 37 38  1  0  0  0  0
 37 41  1  0  0  0  0
 37 42  1  0  0  0  0
 38 39  1  0  0  0  0
 38 40  1  0  0  0  0
M  END
>  <MODEL>
       1

$$$$
best_conformers_18.pdb
 OpenBabel02042510453D

 50 53  0  0  1  0  0  0  0  0999 V2000
    4.7120   -0.7280   28.7030 C   0  0  0  0  0  0  0  0  0  0  0  0
    4.5080   -1.1990   27.2640 C   0  0  1  0  0  0  0  0  0  0  0  0
    4.3600   -0.0220   26.2880 C   0  0  0  0  0  0  0  0  0  0  0  0
    5.6810    0.6940   25.9880 C   0  0  0  0  0  0  0  0  0  0  0  0
    6.8240   -0.2460   25.5410 C   0  0  2  0  0  0  0  0  0  0  0  0
    8.1450    0.5340   25.4140 C   0  0  0  0  0  0  0  0  0  0  0  0
    8.2250    1.0330   23.9690 C   0  0  0  0  0  0  0  0  0  0  0  0
    7.3580    0.1250   23.2170 N   0  0  0  0  0  0  0  0  0  0  0  0
    7.3750    0.1380   21.8490 C   0  0  0  0  0  0  0  0  0  0  0  0
    8.1110    0.8940   21.2340 O   0  0  0  0  0  0  0  0  0  0  0  0
    6.4610   -0.8290   21.0550 C   0  0  0  0  0  0  0  0  0  0  0  0
    5.8080   -0.1740   19.8530 C   0  0  0  0  0  0  0  0  0  0  0  0
    6.2370   -0.4360   18.5740 C   0  0  0  0  0  0  0  0  0  0  0  0
    5.7550    0.1380   17.4350 N   0  0  0  0  0  0  0  0  0  0  0  0
    4.7860    1.0110   17.5800 C   0  0  0  0  0  0  0  0  0  0  0  0
    4.2270    1.3790   18.8380 C   0  0  0  0  0  0  0  0  0  0  0  0
    3.1780    2.3300   18.9410 C   0  0  0  0  0  0  0  0  0  0  0  0
    2.6570    2.6580   20.1630 C   0  0  0  0  0  0  0  0  0  0  0  0
    3.1680    2.0520   21.3330 C   0  0  0  0  0  0  0  0  0  0  0  0
    4.1860    1.1340   21.2620 C   0  0  0  0  0  0  0  0  0  0  0  0
    4.7480    0.7740   20.0070 C   0  0  0  0  0  0  0  0  0  0  0  0
    4.5680    0.6820   22.1730 H   0  0  0  0  0  0  0  0  0  0  0  0
    2.7510    2.3220   22.2970 H   0  0  0  0  0  0  0  0  0  0  0  0
    1.8550    3.3880   20.2440 H   0  0  0  0  0  0  0  0  0  0  0  0
    2.7990    2.7930   18.0320 H   0  0  0  0  0  0  0  0  0  0  0  0
    4.3970    1.4890   16.6780 H   0  0  0  0  0  0  0  0  0  0  0  0
    7.0250   -1.1700   18.4060 H   0  0  0  0  0  0  0  0  0  0  0  0
    5.7100   -1.3130   21.6880 H   0  0  0  0  0  0  0  0  0  0  0  0
    7.1120   -1.6330   20.6880 H   0  0  0  0  0  0  0  0  0  0  0  0
    6.6010   -0.7570   24.0930 C   0  0  0  0  0  0  0  0  0  0  0  0
    6.9460   -1.7920   23.9830 H   0  0  0  0  0  0  0  0  0  0  0  0
    5.5400   -0.7470   23.8270 H   0  0  0  0  0  0  0  0  0  0  0  0
    7.8840    2.0700   23.8790 H   0  0  0  0  0  0  0  0  0  0  0  0
    9.2470    0.9960   23.5900 H   0  0  0  0  0  0  0  0  0  0  0  0
    8.9900   -0.1240   25.6430 H   0  0  0  0  0  0  0  0  0  0  0  0
    8.1960    1.3510   26.1380 H   0  0  0  0  0  0  0  0  0  0  0  0
    6.9500   -1.4020   26.5500 C   0  0  0  0  0  0  0  0  0  0  0  0
    5.6310   -2.1370   26.8000 C   0  0  0  0  0  0  0  0  0  0  0  0
    5.3280   -2.6380   25.8720 H   0  0  0  0  0  0  0  0  0  0  0  0
    5.7770   -2.9330   27.5400 H   0  0  0  0  0  0  0  0  0  0  0  0
    7.3400   -1.0170   27.5020 H   0  0  0  0  0  0  0  0  0  0  0  0
    7.7100   -2.1110   26.1990 H   0  0  0  0  0  0  0  0  0  0  0  0
    5.5280    1.4670   25.2260 H   0  0  0  0  0  0  0  0  0  0  0  0
    5.9980    1.2360   26.8890 H   0  0  0  0  0  0  0  0  0  0  0  0
    3.9250   -0.3820   25.3480 H   0  0  0  0  0  0  0  0  0  0  0  0
    3.6370    0.6960   26.6940 H   0  0  0  0  0  0  0  0  0  0  0  0
    3.5700   -1.7670   27.2490 H   0  0  0  0  0  0  0  0  0  0  0  0
    3.8680   -0.1190   29.0390 H   0  0  0  0  0  0  0  0  0  0  0  0
    5.6120   -0.1210   28.8240 H   0  0  0  0  0  0  0  0  0  0  0  0
    4.8020   -1.5760   29.3870 H   0  0  0  0  0  0  0  0  0  0  0  0
  1  2  1  0  0  0  0
  1 48  1  0  0  0  0
  1 49  1  0  0  0  0
  1 50  1  0  0  0  0
  2  3  1  0  0  0  0
  2 38  1  0  0  0  0
  2 47  1  6  0  0  0
  3  4  1  0  0  0  0
  3 45  1  0  0  0  0
  3 46  1  0  0  0  0
  4 43  1  0  0  0  0
  4 44  1  0  0  0  0
  5  4  1  1  0  0  0
  5  6  1  0  0  0  0
  5 30  1  0  0  0  0
  5 37  1  0  0  0  0
  6  7  1  0  0  0  0
  6 35  1  0  0  0  0
  6 36  1  0  0  0  0
  7  8  1  0  0  0  0
  7 33  1  0  0  0  0
  7 34  1  0  0  0  0
  8  9  1  0  0  0  0
  8 30  1  0  0  0  0
  9 10  2  0  0  0  0
  9 11  1  0  0  0  0
 11 12  1  0  0  0  0
 11 28  1  0  0  0  0
 11 29  1  0  0  0  0
 12 13  2  0  0  0  0
 12 21  1  0  0  0  0
 13 14  1  0  0  0  0
 13 27  1  0  0  0  0
 14 15  2  0  0  0  0
 15 16  1  0  0  0  0
 15 26  1  0  0  0  0
 16 17  2  0  0  0  0
 16 21  1  0  0  0  0
 17 18  1  0  0  0  0
 17 25  1  0  0  0  0
 18 19  2  0  0  0  0
 18 24  1  0  0  0  0
 19 20  1  0  0  0  0
 19 23  1  0  0  0  0
 20 21  2  0  0  0  0
 20 22  1  0  0  0  0
 30 31  1  0  0  0  0
 30 32  1  0  0  0  0
 37 38  1  0  0  0  0
 37 41  1  0  0  0  0
 37 42  1  0  0  0  0
 38 39  1  0  0  0  0
 38 40  1  0  0  0  0
M  END
>  <MODEL>
       2

$$$$
best_conformers_18.pdb
 OpenBabel02042510453D

 50 53  0  0  1  0  0  0  0  0999 V2000
    4.7490   -6.4910   27.3870 C   0  0  0  0  0  0  0  0  0  0  0  0
    4.4630   -6.3180   25.8920 C   0  0  1  0  0  0  0  0  0  0  0  0
    3.4370   -5.2030   25.6340 C   0  0  0  0  0  0  0  0  0  0  0  0
    4.0350   -3.8060   25.8100 C   0  0  0  0  0  0  0  0  0  0  0  0
    5.3260   -3.5340   25.0010 C   0  0  2  0  0  0  0  0  0  0  0  0
    5.8020   -2.0870   25.3060 C   0  0  0  0  0  0  0  0  0  0  0  0
    6.3470   -1.4820   24.0030 C   0  0  0  0  0  0  0  0  0  0  0  0
    5.7560   -2.3260   22.9660 N   0  0  0  0  0  0  0  0  0  0  0  0
    5.5850   -2.0560   21.6410 C   0  0  0  0  0  0  0  0  0  0  0  0
    4.8630   -2.7530   20.9450 O   0  0  0  0  0  0  0  0  0  0  0  0
    6.4050   -0.9050   21.0530 C   0  0  0  0  0  0  0  0  0  0  0  0
    5.7750   -0.2250   19.8700 C   0  0  0  0  0  0  0  0  0  0  0  0
    6.2380   -0.4770   18.6060 C   0  0  0  0  0  0  0  0  0  0  0  0
    5.7900    0.1060   17.4640 N   0  0  0  0  0  0  0  0  0  0  0  0
    4.8170    0.9770   17.5940 C   0  0  0  0  0  0  0  0  0  0  0  0
    4.2320    1.3440   18.8400 C   0  0  0  0  0  0  0  0  0  0  0  0
    3.1910    2.3050   18.9330 C   0  0  0  0  0  0  0  0  0  0  0  0
    2.6540    2.6330   20.1460 C   0  0  0  0  0  0  0  0  0  0  0  0
    3.1430    2.0230   21.3260 C   0  0  0  0  0  0  0  0  0  0  0  0
    4.1550    1.0990   21.2660 C   0  0  0  0  0  0  0  0  0  0  0  0
    4.7220    0.7290   20.0160 C   0  0  0  0  0  0  0  0  0  0  0  0
    4.5300    0.6550   22.1870 H   0  0  0  0  0  0  0  0  0  0  0  0
    2.7150    2.3000   22.2830 H   0  0  0  0  0  0  0  0  0  0  0  0
    1.8520    3.3640   20.2150 H   0  0  0  0  0  0  0  0  0  0  0  0
    2.8320    2.7750   18.0200 H   0  0  0  0  0  0  0  0  0  0  0  0
    4.4440    1.4460   16.6820 H   0  0  0  0  0  0  0  0  0  0  0  0
    7.0530   -1.1900   18.4760 H   0  0  0  0  0  0  0  0  0  0  0  0
    6.6420   -0.1760   21.8330 H   0  0  0  0  0  0  0  0  0  0  0  0
    7.3640   -1.3440   20.7410 H   0  0  0  0  0  0  0  0  0  0  0  0
    5.0730   -3.4960   23.4800 C   0  0  0  0  0  0  0  0  0  0  0  0
    5.4170   -4.3960   22.9490 H   0  0  0  0  0  0  0  0  0  0  0  0
    4.0230   -3.4290   23.2250 H   0  0  0  0  0  0  0  0  0  0  0  0
    7.4430   -1.5030   23.9570 H   0  0  0  0  0  0  0  0  0  0  0  0
    6.0070   -0.4410   23.9010 H   0  0  0  0  0  0  0  0  0  0  0  0
    4.9220   -1.4970   25.5780 H   0  0  0  0  0  0  0  0  0  0  0  0
    6.4960   -2.0230   26.1510 H   0  0  0  0  0  0  0  0  0  0  0  0
    6.3540   -4.6480   25.3070 C   0  0  0  0  0  0  0  0  0  0  0  0
    5.7360   -6.0440   25.0700 C   0  0  0  0  0  0  0  0  0  0  0  0
    5.4690   -6.1290   24.0060 H   0  0  0  0  0  0  0  0  0  0  0  0
    6.4750   -6.8320   25.2530 H   0  0  0  0  0  0  0  0  0  0  0  0
    6.7240   -4.5600   26.3390 H   0  0  0  0  0  0  0  0  0  0  0  0
    7.2330   -4.5220   24.6590 H   0  0  0  0  0  0  0  0  0  0  0  0
    4.2480   -3.6430   26.8750 H   0  0  0  0  0  0  0  0  0  0  0  0
    3.2910   -3.0500   25.5330 H   0  0  0  0  0  0  0  0  0  0  0  0
    3.0320   -5.3100   24.6200 H   0  0  0  0  0  0  0  0  0  0  0  0
    2.5820   -5.3240   26.3120 H   0  0  0  0  0  0  0  0  0  0  0  0
    4.0340   -7.2630   25.5330 H   0  0  0  0  0  0  0  0  0  0  0  0
    5.2480   -5.6120   27.8060 H   0  0  0  0  0  0  0  0  0  0  0  0
    5.3940   -7.3570   27.5660 H   0  0  0  0  0  0  0  0  0  0  0  0
    3.8240   -6.6450   27.9540 H   0  0  0  0  0  0  0  0  0  0  0  0
  1  2  1  0  0  0  0
  1 48  1  0  0  0  0
  1 49  1  0  0  0  0
  1 50  1  0  0  0  0
  2  3  1  0  0  0  0
  2 38  1  0  0  0  0
  2 47  1  6  0  0  0
  3  4  1  0  0  0  0
  3 45  1  0  0  0  0
  3 46  1  0  0  0  0
  4 43  1  0  0  0  0
  4 44  1  0  0  0  0
  5  4  1  1  0  0  0
  5  6  1  0  0  0  0
  5 30  1  0  0  0  0
  5 37  1  0  0  0  0
  6  7  1  0  0  0  0
  6 35  1  0  0  0  0
  6 36  1  0  0  0  0
  7  8  1  0  0  0  0
  7 33  1  0  0  0  0
  7 34  1  0  0  0  0
  8  9  1  0  0  0  0
  8 30  1  0  0  0  0
  9 10  2  0  0  0  0
  9 11  1  0  0  0  0
 11 12  1  0  0  0  0
 11 28  1  0  0  0  0
 11 29  1  0  0  0  0
 12 13  2  0  0  0  0
 12 21  1  0  0  0  0
 13 14  1  0  0  0  0
 13 27  1  0  0  0  0
 14 15  2  0  0  0  0
 15 16  1  0  0  0  0
 15 26  1  0  0  0  0
 16 17  2  0  0  0  0
 16 21  1  0  0  0  0
 17 18  1  0  0  0  0
 17 25  1  0  0  0  0
 18 19  2  0  0  0  0
 18 24  1  0  0  0  0
 19 20  1  0  0  0  0
 19 23  1  0  0  0  0
 20 21  2  0  0  0  0
 20 22  1  0  0  0  0
 30 31  1  0  0  0  0
 30 32  1  0  0  0  0
 37 38  1  0  0  0  0
 37 41  1  0  0  0  0
 37 42  1  0  0  0  0
 38 39  1  0  0  0  0
 38 40  1  0  0  0  0
M  END
>  <MODEL>
       3

$$$$
best_conformers_18.pdb
 OpenBabel02042510453D

 50 53  0  0  1  0  0  0  0  0999 V2000
    7.1380   -2.8630   28.6080 C   0  0  0  0  0  0  0  0  0  0  0  0
    6.7690   -3.1060   27.1470 C   0  0  1  0  0  0  0  0  0  0  0  0
    5.6170   -2.1700   26.7540 C   0  0  0  0  0  0  0  0  0  0  0  0
    6.0800   -0.7170   26.5540 C   0  0  0  0  0  0  0  0  0  0  0  0
    7.1890   -0.5600   25.5040 C   0  0  2  0  0  0  0  0  0  0  0  0
    7.6690    0.9040   25.4060 C   0  0  0  0  0  0  0  0  0  0  0  0
    8.0920    1.1460   23.9520 C   0  0  0  0  0  0  0  0  0  0  0  0
    7.3330    0.1390   23.2120 N   0  0  0  0  0  0  0  0  0  0  0  0
    7.3740    0.1550   21.8480 C   0  0  0  0  0  0  0  0  0  0  0  0
    8.1290    0.9090   21.2530 O   0  0  0  0  0  0  0  0  0  0  0  0
    6.4570   -0.8120   21.0660 C   0  0  0  0  0  0  0  0  0  0  0  0
    5.8100   -0.1680   19.8600 C   0  0  0  0  0  0  0  0  0  0  0  0
    6.2490   -0.4360   18.5900 C   0  0  0  0  0  0  0  0  0  0  0  0
    5.7720    0.1370   17.4480 N   0  0  0  0  0  0  0  0  0  0  0  0
    4.7980    1.0040   17.5890 C   0  0  0  0  0  0  0  0  0  0  0  0
    4.2290    1.3720   18.8380 C   0  0  0  0  0  0  0  0  0  0  0  0
    3.1810    2.3240   18.9420 C   0  0  0  0  0  0  0  0  0  0  0  0
    2.6590    2.6550   20.1620 C   0  0  0  0  0  0  0  0  0  0  0  0
    3.1670    2.0510   21.3360 C   0  0  0  0  0  0  0  0  0  0  0  0
    4.1840    1.1340   21.2650 C   0  0  0  0  0  0  0  0  0  0  0  0
    4.7450    0.7690   20.0110 C   0  0  0  0  0  0  0  0  0  0  0  0
    4.5670    0.6800   22.1770 H   0  0  0  0  0  0  0  0  0  0  0  0
    2.7480    2.3210   22.3010 H   0  0  0  0  0  0  0  0  0  0  0  0
    1.8580    3.3870   20.2410 H   0  0  0  0  0  0  0  0  0  0  0  0
    2.8110    2.7860   18.0290 H   0  0  0  0  0  0  0  0  0  0  0  0
    4.4070    1.4700   16.6810 H   0  0  0  0  0  0  0  0  0  0  0  0
    7.0410   -1.1670   18.4170 H   0  0  0  0  0  0  0  0  0  0  0  0
    7.1040   -1.6180   20.6980 H   0  0  0  0  0  0  0  0  0  0  0  0
    5.7130   -1.2830   21.7190 H   0  0  0  0  0  0  0  0  0  0  0  0
    6.6730   -0.8340   24.0700 C   0  0  0  0  0  0  0  0  0  0  0  0
    5.5810   -0.7110   24.0240 H   0  0  0  0  0  0  0  0  0  0  0  0
    6.8970   -1.8560   23.7460 H   0  0  0  0  0  0  0  0  0  0  0  0
    9.1710    1.0340   23.7800 H   0  0  0  0  0  0  0  0  0  0  0  0
    7.8390    2.1470   23.5890 H   0  0  0  0  0  0  0  0  0  0  0  0
    8.4780    1.0970   26.1100 H   0  0  0  0  0  0  0  0  0  0  0  0
    6.8480    1.5750   25.6810 H   0  0  0  0  0  0  0  0  0  0  0  0
    8.3570   -1.4900   25.8870 C   0  0  0  0  0  0  0  0  0  0  0  0
    7.9380   -2.9420   26.1600 C   0  0  0  0  0  0  0  0  0  0  0  0
    7.6510   -3.4000   25.2050 H   0  0  0  0  0  0  0  0  0  0  0  0
    8.8070   -3.5110   26.5130 H   0  0  0  0  0  0  0  0  0  0  0  0
    8.8460   -1.0820   26.7800 H   0  0  0  0  0  0  0  0  0  0  0  0
    9.1140   -1.4460   25.0940 H   0  0  0  0  0  0  0  0  0  0  0  0
    5.2280   -0.0980   26.2560 H   0  0  0  0  0  0  0  0  0  0  0  0
    6.4340   -0.2850   27.5020 H   0  0  0  0  0  0  0  0  0  0  0  0
    4.8530   -2.2120   27.5400 H   0  0  0  0  0  0  0  0  0  0  0  0
    5.1460   -2.5220   25.8250 H   0  0  0  0  0  0  0  0  0  0  0  0
    6.4260   -4.1450   27.0650 H   0  0  0  0  0  0  0  0  0  0  0  0
    7.2320   -1.7910   28.7850 H   0  0  0  0  0  0  0  0  0  0  0  0
    8.0780   -3.3370   28.9010 H   0  0  0  0  0  0  0  0  0  0  0  0
    6.3430   -3.1900   29.2840 H   0  0  0  0  0  0  0  0  0  0  0  0
  1  2  1  0  0  0  0
  1 48  1  0  0  0  0
  1 49  1  0  0  0  0
  1 50  1  0  0  0  0
  2  3  1  0  0  0  0
  2 38  1  0  0  0  0
  2 47  1  6  0  0  0
  3  4  1  0  0  0  0
  3 45  1  0  0  0  0
  3 46  1  0  0  0  0
  4 43  1  0  0  0  0
  4 44  1  0  0  0  0
  5  4  1  1  0  0  0
  5  6  1  0  0  0  0
  5 30  1  0  0  0  0
  5 37  1  0  0  0  0
  6  7  1  0  0  0  0
  6 35  1  0  0  0  0
  6 36  1  0  0  0  0
  7  8  1  0  0  0  0
  7 33  1  0  0  0  0
  7 34  1  0  0  0  0
  8  9  1  0  0  0  0
  8 30  1  0  0  0  0
  9 10  2  0  0  0  0
  9 11  1  0  0  0  0
 11 12  1  0  0  0  0
 11 28  1  0  0  0  0
 11 29  1  0  0  0  0
 12 13  2  0  0  0  0
 12 21  1  0  0  0  0
 13 14  1  0  0  0  0
 13 27  1  0  0  0  0
 14 15  2  0  0  0  0
 15 16  1  0  0  0  0
 15 26  1  0  0  0  0
 16 17  2  0  0  0  0
 16 21  1  0  0  0  0
 17 18  1  0  0  0  0
 17 25  1  0  0  0  0
 18 19  2  0  0  0  0
 18 24  1  0  0  0  0
 19 20  1  0  0  0  0
 19 23  1  0  0  0  0
 20 21  2  0  0  0  0
 20 22  1  0  0  0  0
 30 31  1  0  0  0  0
 30 32  1  0  0  0  0
 37 38  1  0  0  0  0
 37 41  1  0  0  0  0
 37 42  1  0  0  0  0
 38 39  1  0  0  0  0
 38 40  1  0  0  0  0
M  END
>  <MODEL>
       4

$$$$
best_conformers_18.pdb
 OpenBabel02042510453D

 50 53  0  0  1  0  0  0  0  0999 V2000
    5.1780   -0.2170   28.7700 C   0  0  0  0  0  0  0  0  0  0  0  0
    5.7630    0.2640   27.4380 C   0  0  1  0  0  0  0  0  0  0  0  0
    6.9200   -0.6250   26.9600 C   0  0  0  0  0  0  0  0  0  0  0  0
    6.4440   -1.9860   26.4660 C   0  0  0  0  0  0  0  0  0  0  0  0
    5.4070   -1.8960   25.3430 C   0  0  2  0  0  0  0  0  0  0  0  0
    4.9340   -3.3250   24.9680 C   0  0  0  0  0  0  0  0  0  0  0  0
    5.2010   -3.4920   23.4720 C   0  0  0  0  0  0  0  0  0  0  0  0
    5.3080   -2.1210   22.9750 N   0  0  0  0  0  0  0  0  0  0  0  0
    5.4920   -1.9890   21.6110 C   0  0  0  0  0  0  0  0  0  0  0  0
    4.9930   -2.8010   20.8490 O   0  0  0  0  0  0  0  0  0  0  0  0
    6.3880   -0.8630   21.0610 C   0  0  0  0  0  0  0  0  0  0  0  0
    5.7860   -0.1810   19.8620 C   0  0  0  0  0  0  0  0  0  0  0  0
    6.2290   -0.4510   18.5950 C   0  0  0  0  0  0  0  0  0  0  0  0
    5.7690    0.1290   17.4530 N   0  0  0  0  0  0  0  0  0  0  0  0
    4.7990    1.0050   17.5840 C   0  0  0  0  0  0  0  0  0  0  0  0
    4.2300    1.3740   18.8350 C   0  0  0  0  0  0  0  0  0  0  0  0
    3.1790    2.3210   18.9340 C   0  0  0  0  0  0  0  0  0  0  0  0
    2.6460    2.6390   20.1550 C   0  0  0  0  0  0  0  0  0  0  0  0
    3.1430    2.0290   21.3300 C   0  0  0  0  0  0  0  0  0  0  0  0
    4.1630    1.1150   21.2610 C   0  0  0  0  0  0  0  0  0  0  0  0
    4.7310    0.7640   20.0080 C   0  0  0  0  0  0  0  0  0  0  0  0
    4.5370    0.6560   22.1720 H   0  0  0  0  0  0  0  0  0  0  0  0
    2.7170    2.2930   22.2920 H   0  0  0  0  0  0  0  0  0  0  0  0
    1.8430    3.3650   20.2330 H   0  0  0  0  0  0  0  0  0  0  0  0
    2.8070    2.7870   18.0260 H   0  0  0  0  0  0  0  0  0  0  0  0
    4.4120    1.4700   16.6750 H   0  0  0  0  0  0  0  0  0  0  0  0
    7.0310   -1.1730   18.4360 H   0  0  0  0  0  0  0  0  0  0  0  0
    6.6670   -0.1410   21.8370 H   0  0  0  0  0  0  0  0  0  0  0  0
    7.3130   -1.3680   20.7460 H   0  0  0  0  0  0  0  0  0  0  0  0
    6.0120   -1.3750   24.0080 C   0  0  0  0  0  0  0  0  0  0  0  0
    5.8610   -0.2960   23.8900 H   0  0  0  0  0  0  0  0  0  0  0  0
    7.0990   -1.5910   23.9700 H   0  0  0  0  0  0  0  0  0  0  0  0
    6.1620   -4.0080   23.3080 H   0  0  0  0  0  0  0  0  0  0  0  0
    4.4370   -4.0490   22.9270 H   0  0  0  0  0  0  0  0  0  0  0  0
    5.4730   -4.0740   25.5670 H   0  0  0  0  0  0  0  0  0  0  0  0
    3.8670   -3.4510   25.1720 H   0  0  0  0  0  0  0  0  0  0  0  0
    4.2350   -0.9950   25.8030 C   0  0  0  0  0  0  0  0  0  0  0  0
    4.6930    0.3710   26.3390 C   0  0  0  0  0  0  0  0  0  0  0  0
    3.8320    0.9340   26.7210 H   0  0  0  0  0  0  0  0  0  0  0  0
    5.0990    0.9650   25.5100 H   0  0  0  0  0  0  0  0  0  0  0  0
    3.6590   -1.5150   26.5840 H   0  0  0  0  0  0  0  0  0  0  0  0
    3.5460   -0.8620   24.9600 H   0  0  0  0  0  0  0  0  0  0  0  0
    7.2880   -2.5880   26.1030 H   0  0  0  0  0  0  0  0  0  0  0  0
    5.9970   -2.5530   27.2980 H   0  0  0  0  0  0  0  0  0  0  0  0
    7.6240   -0.7740   27.7770 H   0  0  0  0  0  0  0  0  0  0  0  0
    7.4680   -0.1250   26.1500 H   0  0  0  0  0  0  0  0  0  0  0  0
    6.1710    1.2670   27.6130 H   0  0  0  0  0  0  0  0  0  0  0  0
    4.4060    0.4730   29.1260 H   0  0  0  0  0  0  0  0  0  0  0  0
    5.9540   -0.2800   29.5400 H   0  0  0  0  0  0  0  0  0  0  0  0
    4.7170   -1.2070   28.6900 H   0  0  0  0  0  0  0  0  0  0  0  0
  1  2  1  0  0  0  0
  1 48  1  0  0  0  0
  1 49  1  0  0  0  0
  1 50  1  0  0  0  0
  2  3  1  0  0  0  0
  2 38  1  0  0  0  0
  2 47  1  1  0  0  0
  3  4  1  0  0  0  0
  3 45  1  0  0  0  0
  3 46  1  0  0  0  0
  4 43  1  0  0  0  0
  4 44  1  0  0  0  0
  5  4  1  1  0  0  0
  5  6  1  0  0  0  0
  5 30  1  0  0  0  0
  5 37  1  0  0  0  0
  6  7  1  0  0  0  0
  6 35  1  0  0  0  0
  6 36  1  0  0  0  0
  7  8  1  0  0  0  0
  7 33  1  0  0  0  0
  7 34  1  0  0  0  0
  8  9  1  0  0  0  0
  8 30  1  0  0  0  0
  9 10  2  0  0  0  0
  9 11  1  0  0  0  0
 11 12  1  0  0  0  0
 11 28  1  0  0  0  0
 11 29  1  0  0  0  0
 12 13  2  0  0  0  0
 12 21  1  0  0  0  0
 13 14  1  0  0  0  0
 13 27  1  0  0  0  0
 14 15  2  0  0  0  0
 15 16  1  0  0  0  0
 15 26  1  0  0  0  0
 16 17  2  0  0  0  0
 16 21  1  0  0  0  0
 17 18  1  0  0  0  0
 17 25  1  0  0  0  0
 18 19  2  0  0  0  0
 18 24  1  0  0  0  0
 19 20  1  0  0  0  0
 19 23  1  0  0  0  0
 20 21  2  0  0  0  0
 20 22  1  0  0  0  0
 30 31  1  0  0  0  0
 30 32  1  0  0  0  0
 37 38  1  0  0  0  0
 37 41  1  0  0  0  0
 37 42  1  0  0  0  0
 38 39  1  0  0  0  0
 38 40  1  0  0  0  0
M  END
>  <MODEL>
       5

$$$$
