best_conformers_92.pdb
 OpenBabel02042510453D

 47 50  0  0  1  0  0  0  0  0999 V2000
    7.9450    1.1150   21.2210 O   0  0  0  0  0  0  0  0  0  0  0  0
    7.4240    0.1680   21.7830 C   0  0  0  0  0  0  0  0  0  0  0  0
    6.4660   -0.7870   21.0610 C   0  0  0  0  0  0  0  0  0  0  0  0
    5.8020   -0.1710   19.8660 C   0  0  0  0  0  0  0  0  0  0  0  0
    6.2520   -0.4380   18.6000 C   0  0  0  0  0  0  0  0  0  0  0  0
    5.7840    0.1330   17.4560 N   0  0  0  0  0  0  0  0  0  0  0  0
    4.8110    1.0020   17.5930 C   0  0  0  0  0  0  0  0  0  0  0  0
    4.2310    1.3670   18.8400 C   0  0  0  0  0  0  0  0  0  0  0  0
    3.1840    2.3210   18.9400 C   0  0  0  0  0  0  0  0  0  0  0  0
    2.6630    2.6540   20.1590 C   0  0  0  0  0  0  0  0  0  0  0  0
    3.1660    2.0560   21.3370 C   0  0  0  0  0  0  0  0  0  0  0  0
    4.1790    1.1370   21.2650 C   0  0  0  0  0  0  0  0  0  0  0  0
    4.7380    0.7650   20.0130 C   0  0  0  0  0  0  0  0  0  0  0  0
    4.5630    0.6910   22.1760 H   0  0  0  0  0  0  0  0  0  0  0  0
    2.7470    2.3250   22.3030 H   0  0  0  0  0  0  0  0  0  0  0  0
    1.8650    3.3850   20.2320 H   0  0  0  0  0  0  0  0  0  0  0  0
    2.8210    2.7800   18.0230 H   0  0  0  0  0  0  0  0  0  0  0  0
    4.4180    1.4510   16.6790 H   0  0  0  0  0  0  0  0  0  0  0  0
    7.0530   -1.1600   18.4370 H   0  0  0  0  0  0  0  0  0  0  0  0
    7.0920   -1.6190   20.7190 H   0  0  0  0  0  0  0  0  0  0  0  0
    5.7580   -1.2260   21.7700 H   0  0  0  0  0  0  0  0  0  0  0  0
    7.7320   -0.1880   23.0880 N   0  0  0  0  0  0  0  0  0  0  0  0
    6.8220   -0.9170   23.8870 C   0  0  0  0  0  0  0  0  0  0  0  0
    7.0770   -2.1250   24.4150 C   0  0  0  0  0  0  0  0  0  0  0  0
    8.3830   -2.7950   24.4520 C   0  0  0  0  0  0  0  0  0  0  0  0
    9.4850   -2.2600   25.0220 C   0  0  0  0  0  0  0  0  0  0  0  0
    9.5070   -0.9450   25.6810 C   0  0  0  0  0  0  0  0  0  0  0  0
    9.0280    0.2060   25.1760 C   0  0  0  0  0  0  0  0  0  0  0  0
    8.8820    0.5250   23.7000 C   0  0  1  0  0  0  0  0  0  0  0  0
   10.1790    0.3020   22.9210 C   0  0  0  0  0  0  0  0  0  0  0  0
   11.1740    1.2750   22.9970 C   0  0  0  0  0  0  0  0  0  0  0  0
   12.3960    1.0880   22.3570 C   0  0  0  0  0  0  0  0  0  0  0  0
   12.6310   -0.0850   21.6470 C   0  0  0  0  0  0  0  0  0  0  0  0
   11.6340   -1.0550   21.5590 C   0  0  0  0  0  0  0  0  0  0  0  0
   10.4150   -0.8650   22.2040 C   0  0  0  0  0  0  0  0  0  0  0  0
    9.6400   -1.6320   22.1850 H   0  0  0  0  0  0  0  0  0  0  0  0
   11.7980   -1.9520   20.9670 H   0  0  0  0  0  0  0  0  0  0  0  0
   13.5870   -0.2330   21.1510 H   0  0  0  0  0  0  0  0  0  0  0  0
   13.1600    1.8610   22.4030 H   0  0  0  0  0  0  0  0  0  0  0  0
   10.9990    2.1740   23.5900 H   0  0  0  0  0  0  0  0  0  0  0  0
    8.6630    1.5960   23.6250 H   0  0  0  0  0  0  0  0  0  0  0  0
    8.7210    1.0070   25.8510 H   0  0  0  0  0  0  0  0  0  0  0  0
    9.9680   -0.9330   26.6720 H   0  0  0  0  0  0  0  0  0  0  0  0
   10.4050   -2.8480   25.1060 H   0  0  0  0  0  0  0  0  0  0  0  0
    8.4090   -3.8360   24.1130 H   0  0  0  0  0  0  0  0  0  0  0  0
    6.2490   -2.6610   24.8850 H   0  0  0  0  0  0  0  0  0  0  0  0
    5.8390   -0.4510   24.0120 H   0  0  0  0  0  0  0  0  0  0  0  0
  1  2  2  0  0  0  0
  2  3  1  0  0  0  0
  2 22  1  0  0  0  0
  3  4  1  0  0  0  0
  3 20  1  0  0  0  0
  3 21  1  0  0  0  0
  4  5  2  0  0  0  0
  4 13  1  0  0  0  0
  5  6  1  0  0  0  0
  5 19  1  0  0  0  0
  6  7  2  0  0  0  0
  7  8  1  0  0  0  0
  7 18  1  0  0  0  0
  8  9  2  0  0  0  0
  8 13  1  0  0  0  0
  9 10  1  0  0  0  0
  9 17  1  0  0  0  0
 10 11  2  0  0  0  0
 10 16  1  0  0  0  0
 11 12  1  0  0  0  0
 11 15  1  0  0  0  0
 12 13  2  0  0  0  0
 12 14  1  0  0  0  0
 22 23  1  0  0  0  0
 22 29  1  0  0  0  0
 23 24  2  0  0  0  0
 23 47  1  0  0  0  0
 24 25  1  0  0  0  0
 24 46  1  0  0  0  0
 25 26  2  0  0  0  0
 25 45  1  0  0  0  0
 26 27  1  0  0  0  0
 26 44  1  0  0  0  0
 27 28  2  0  0  0  0
 27 43  1  0  0  0  0
 28 29  1  0  0  0  0
 28 42  1  0  0  0  0
 29 30  1  0  0  0  0
 29 41  1  6  0  0  0
 30 31  2  0  0  0  0
 30 35  1  0  0  0  0
 31 32  1  0  0  0  0
 31 40  1  0  0  0  0
 32 33  2  0  0  0  0
 32 39  1  0  0  0  0
 33 34  1  0  0  0  0
 33 38  1  0  0  0  0
 34 35  2  0  0  0  0
 34 37  1  0  0  0  0
 35 36  1  0  0  0  0
M  END
>  <MODEL>
       1

$$$$
best_conformers_92.pdb
 OpenBabel02042510453D

 47 50  0  0  1  0  0  0  0  0999 V2000
    7.9450    1.1160   21.2150 O   0  0  0  0  0  0  0  0  0  0  0  0
    7.4280    0.1680   21.7790 C   0  0  0  0  0  0  0  0  0  0  0  0
    6.4680   -0.7870   21.0600 C   0  0  0  0  0  0  0  0  0  0  0  0
    5.8020   -0.1710   19.8650 C   0  0  0  0  0  0  0  0  0  0  0  0
    6.2520   -0.4370   18.5990 C   0  0  0  0  0  0  0  0  0  0  0  0
    5.7830    0.1330   17.4550 N   0  0  0  0  0  0  0  0  0  0  0  0
    4.8100    1.0030   17.5920 C   0  0  0  0  0  0  0  0  0  0  0  0
    4.2310    1.3680   18.8400 C   0  0  0  0  0  0  0  0  0  0  0  0
    3.1840    2.3210   18.9400 C   0  0  0  0  0  0  0  0  0  0  0  0
    2.6640    2.6540   20.1590 C   0  0  0  0  0  0  0  0  0  0  0  0
    3.1670    2.0570   21.3370 C   0  0  0  0  0  0  0  0  0  0  0  0
    4.1800    1.1370   21.2650 C   0  0  0  0  0  0  0  0  0  0  0  0
    4.7390    0.7650   20.0130 C   0  0  0  0  0  0  0  0  0  0  0  0
    4.5650    0.6920   22.1760 H   0  0  0  0  0  0  0  0  0  0  0  0
    2.7480    2.3250   22.3020 H   0  0  0  0  0  0  0  0  0  0  0  0
    1.8650    3.3850   20.2320 H   0  0  0  0  0  0  0  0  0  0  0  0
    2.8200    2.7800   18.0230 H   0  0  0  0  0  0  0  0  0  0  0  0
    4.4170    1.4520   16.6790 H   0  0  0  0  0  0  0  0  0  0  0  0
    7.0520   -1.1600   18.4370 H   0  0  0  0  0  0  0  0  0  0  0  0
    5.7590   -1.2230   21.7700 H   0  0  0  0  0  0  0  0  0  0  0  0
    7.0920   -1.6200   20.7180 H   0  0  0  0  0  0  0  0  0  0  0  0
    7.7410   -0.1870   23.0830 N   0  0  0  0  0  0  0  0  0  0  0  0
    6.8340   -0.9150   23.8860 C   0  0  0  0  0  0  0  0  0  0  0  0
    7.0900   -2.1230   24.4140 C   0  0  0  0  0  0  0  0  0  0  0  0
    8.3940   -2.7960   24.4410 C   0  0  0  0  0  0  0  0  0  0  0  0
    9.5010   -2.2650   25.0050 C   0  0  0  0  0  0  0  0  0  0  0  0
    9.5280   -0.9500   25.6660 C   0  0  0  0  0  0  0  0  0  0  0  0
    9.0440    0.2010   25.1670 C   0  0  0  0  0  0  0  0  0  0  0  0
    8.8940    0.5230   23.6920 C   0  0  1  0  0  0  0  0  0  0  0  0
   10.1870    0.2990   22.9060 C   0  0  0  0  0  0  0  0  0  0  0  0
   10.4180   -0.8690   22.1880 C   0  0  0  0  0  0  0  0  0  0  0  0
   11.6350   -1.0620   21.5410 C   0  0  0  0  0  0  0  0  0  0  0  0
   12.6350   -0.0950   21.6280 C   0  0  0  0  0  0  0  0  0  0  0  0
   12.4030    1.0820   22.3340 C   0  0  0  0  0  0  0  0  0  0  0  0
   11.1830    1.2710   22.9770 C   0  0  0  0  0  0  0  0  0  0  0  0
   11.0100    2.1730   23.5680 H   0  0  0  0  0  0  0  0  0  0  0  0
   13.1670    1.8540   22.3720 H   0  0  0  0  0  0  0  0  0  0  0  0
   13.5910   -0.2460   21.1340 H   0  0  0  0  0  0  0  0  0  0  0  0
   11.7960   -1.9570   20.9450 H   0  0  0  0  0  0  0  0  0  0  0  0
    9.6410   -1.6340   22.1690 H   0  0  0  0  0  0  0  0  0  0  0  0
    8.6770    1.5940   23.6190 H   0  0  0  0  0  0  0  0  0  0  0  0
    8.7280    0.9940   25.8450 H   0  0  0  0  0  0  0  0  0  0  0  0
    9.9910   -0.9400   26.6560 H   0  0  0  0  0  0  0  0  0  0  0  0
   10.4190   -2.8560   25.0820 H   0  0  0  0  0  0  0  0  0  0  0  0
    8.4140   -3.8370   24.1010 H   0  0  0  0  0  0  0  0  0  0  0  0
    6.2630   -2.6580   24.8870 H   0  0  0  0  0  0  0  0  0  0  0  0
    5.8520   -0.4480   24.0160 H   0  0  0  0  0  0  0  0  0  0  0  0
  1  2  2  0  0  0  0
  2  3  1  0  0  0  0
  2 22  1  0  0  0  0
  3  4  1  0  0  0  0
  3 20  1  0  0  0  0
  3 21  1  0  0  0  0
  4  5  2  0  0  0  0
  4 13  1  0  0  0  0
  5  6  1  0  0  0  0
  5 19  1  0  0  0  0
  6  7  2  0  0  0  0
  7  8  1  0  0  0  0
  7 18  1  0  0  0  0
  8  9  2  0  0  0  0
  8 13  1  0  0  0  0
  9 10  1  0  0  0  0
  9 17  1  0  0  0  0
 10 11  2  0  0  0  0
 10 16  1  0  0  0  0
 11 12  1  0  0  0  0
 11 15  1  0  0  0  0
 12 13  2  0  0  0  0
 12 14  1  0  0  0  0
 22 23  1  0  0  0  0
 22 29  1  0  0  0  0
 23 24  2  0  0  0  0
 23 47  1  0  0  0  0
 24 25  1  0  0  0  0
 24 46  1  0  0  0  0
 25 26  2  0  0  0  0
 25 45  1  0  0  0  0
 26 27  1  0  0  0  0
 26 44  1  0  0  0  0
 27 28  2  0  0  0  0
 27 43  1  0  0  0  0
 28 29  1  0  0  0  0
 28 42  1  0  0  0  0
 29 30  1  0  0  0  0
 29 41  1  6  0  0  0
 30 31  2  0  0  0  0
 30 35  1  0  0  0  0
 31 32  1  0  0  0  0
 31 40  1  0  0  0  0
 32 33  2  0  0  0  0
 32 39  1  0  0  0  0
 33 34  1  0  0  0  0
 33 38  1  0  0  0  0
 34 35  2  0  0  0  0
 34 37  1  0  0  0  0
 35 36  1  0  0  0  0
M  END
>  <MODEL>
       2

$$$$
best_conformers_92.pdb
 OpenBabel02042510453D

 47 50  0  0  1  0  0  0  0  0999 V2000
    7.9290    1.0730   21.2870 O   0  0  0  0  0  0  0  0  0  0  0  0
    7.3820    0.1400   21.8400 C   0  0  0  0  0  0  0  0  0  0  0  0
    6.4630   -0.8250   21.0510 C   0  0  0  0  0  0  0  0  0  0  0  0
    5.8060   -0.1770   19.8510 C   0  0  0  0  0  0  0  0  0  0  0  0
    6.2410   -0.4380   18.5750 C   0  0  0  0  0  0  0  0  0  0  0  0
    5.7600    0.1380   17.4370 N   0  0  0  0  0  0  0  0  0  0  0  0
    4.7880    1.0080   17.5830 C   0  0  0  0  0  0  0  0  0  0  0  0
    4.2290    1.3780   18.8360 C   0  0  0  0  0  0  0  0  0  0  0  0
    3.1800    2.3280   18.9420 C   0  0  0  0  0  0  0  0  0  0  0  0
    2.6580    2.6580   20.1640 C   0  0  0  0  0  0  0  0  0  0  0  0
    3.1700    2.0500   21.3350 C   0  0  0  0  0  0  0  0  0  0  0  0
    4.1890    1.1320   21.2640 C   0  0  0  0  0  0  0  0  0  0  0  0
    4.7490    0.7720   20.0080 C   0  0  0  0  0  0  0  0  0  0  0  0
    4.5800    0.6830   22.1790 H   0  0  0  0  0  0  0  0  0  0  0  0
    2.7530    2.3220   22.2990 H   0  0  0  0  0  0  0  0  0  0  0  0
    1.8570    3.3900   20.2450 H   0  0  0  0  0  0  0  0  0  0  0  0
    2.8030    2.7920   18.0330 H   0  0  0  0  0  0  0  0  0  0  0  0
    4.3990    1.4840   16.6790 H   0  0  0  0  0  0  0  0  0  0  0  0
    7.0300   -1.1710   18.4030 H   0  0  0  0  0  0  0  0  0  0  0  0
    5.7250   -1.2870   21.7180 H   0  0  0  0  0  0  0  0  0  0  0  0
    7.1060   -1.6380   20.6930 H   0  0  0  0  0  0  0  0  0  0  0  0
    7.5450   -0.0910   23.1990 N   0  0  0  0  0  0  0  0  0  0  0  0
    7.0180   -1.2420   23.8160 C   0  0  0  0  0  0  0  0  0  0  0  0
    5.8980   -1.2450   24.5520 C   0  0  0  0  0  0  0  0  0  0  0  0
    5.1740   -0.0320   24.9440 C   0  0  0  0  0  0  0  0  0  0  0  0
    5.6910    1.0030   25.6240 C   0  0  0  0  0  0  0  0  0  0  0  0
    7.0540    1.0110   26.1800 C   0  0  0  0  0  0  0  0  0  0  0  0
    8.1700    0.8540   25.4680 C   0  0  0  0  0  0  0  0  0  0  0  0
    8.3230    0.9430   23.9590 C   0  0  1  0  0  0  0  0  0  0  0  0
    9.7950    0.9000   23.5700 C   0  0  0  0  0  0  0  0  0  0  0  0
   10.4930   -0.2990   23.6710 C   0  0  0  0  0  0  0  0  0  0  0  0
   11.8320   -0.3710   23.3090 C   0  0  0  0  0  0  0  0  0  0  0  0
   12.4900    0.7670   22.8480 C   0  0  0  0  0  0  0  0  0  0  0  0
   11.8040    1.9750   22.7600 C   0  0  0  0  0  0  0  0  0  0  0  0
   10.4620    2.0400   23.1260 C   0  0  0  0  0  0  0  0  0  0  0  0
    9.9150    2.9770   23.0520 H   0  0  0  0  0  0  0  0  0  0  0  0
   12.3070    2.8680   22.4010 H   0  0  0  0  0  0  0  0  0  0  0  0
   13.5340    0.7140   22.5600 H   0  0  0  0  0  0  0  0  0  0  0  0
   12.3590   -1.3160   23.3860 H   0  0  0  0  0  0  0  0  0  0  0  0
    9.9710   -1.1800   24.0380 H   0  0  0  0  0  0  0  0  0  0  0  0
    7.9180    1.9140   23.6590 H   0  0  0  0  0  0  0  0  0  0  0  0
    9.1050    0.7140   26.0020 H   0  0  0  0  0  0  0  0  0  0  0  0
    7.1040    1.1100   27.2700 H   0  0  0  0  0  0  0  0  0  0  0  0
    5.0660    1.8640   25.8550 H   0  0  0  0  0  0  0  0  0  0  0  0
    4.1130   -0.0110   24.6920 H   0  0  0  0  0  0  0  0  0  0  0  0
    5.5120   -2.1940   24.9200 H   0  0  0  0  0  0  0  0  0  0  0  0
    7.5790   -2.1550   23.6150 H   0  0  0  0  0  0  0  0  0  0  0  0
  1  2  2  0  0  0  0
  2  3  1  0  0  0  0
  2 22  1  0  0  0  0
  3  4  1  0  0  0  0
  3 20  1  0  0  0  0
  3 21  1  0  0  0  0
  4  5  2  0  0  0  0
  4 13  1  0  0  0  0
  5  6  1  0  0  0  0
  5 19  1  0  0  0  0
  6  7  2  0  0  0  0
  7  8  1  0  0  0  0
  7 18  1  0  0  0  0
  8  9  2  0  0  0  0
  8 13  1  0  0  0  0
  9 10  1  0  0  0  0
  9 17  1  0  0  0  0
 10 11  2  0  0  0  0
 10 16  1  0  0  0  0
 11 12  1  0  0  0  0
 11 15  1  0  0  0  0
 12 13  2  0  0  0  0
 12 14  1  0  0  0  0
 22 23  1  0  0  0  0
 22 29  1  0  0  0  0
 23 24  2  0  0  0  0
 23 47  1  0  0  0  0
 24 25  1  0  0  0  0
 24 46  1  0  0  0  0
 25 26  2  0  0  0  0
 25 45  1  0  0  0  0
 26 27  1  0  0  0  0
 26 44  1  0  0  0  0
 27 28  2  0  0  0  0
 27 43  1  0  0  0  0
 28 29  1  0  0  0  0
 28 42  1  0  0  0  0
 29 30  1  0  0  0  0
 29 41  1  6  0  0  0
 30 31  2  0  0  0  0
 30 35  1  0  0  0  0
 31 32  1  0  0  0  0
 31 40  1  0  0  0  0
 32 33  2  0  0  0  0
 32 39  1  0  0  0  0
 33 34  1  0  0  0  0
 33 38  1  0  0  0  0
 34 35  2  0  0  0  0
 34 37  1  0  0  0  0
 35 36  1  0  0  0  0
M  END
>  <MODEL>
       3

$$$$
best_conformers_92.pdb
 OpenBabel02042510453D

 47 50  0  0  1  0  0  0  0  0999 V2000
    7.9280    1.0720   21.2890 O   0  0  0  0  0  0  0  0  0  0  0  0
    7.3810    0.1390   21.8420 C   0  0  0  0  0  0  0  0  0  0  0  0
    6.4620   -0.8260   21.0500 C   0  0  0  0  0  0  0  0  0  0  0  0
    5.8060   -0.1770   19.8500 C   0  0  0  0  0  0  0  0  0  0  0  0
    6.2410   -0.4390   18.5750 C   0  0  0  0  0  0  0  0  0  0  0  0
    5.7600    0.1380   17.4370 N   0  0  0  0  0  0  0  0  0  0  0  0
    4.7880    1.0080   17.5830 C   0  0  0  0  0  0  0  0  0  0  0  0
    4.2290    1.3780   18.8360 C   0  0  0  0  0  0  0  0  0  0  0  0
    3.1800    2.3280   18.9420 C   0  0  0  0  0  0  0  0  0  0  0  0
    2.6580    2.6580   20.1640 C   0  0  0  0  0  0  0  0  0  0  0  0
    3.1690    2.0500   21.3350 C   0  0  0  0  0  0  0  0  0  0  0  0
    4.1890    1.1320   21.2640 C   0  0  0  0  0  0  0  0  0  0  0  0
    4.7490    0.7720   20.0080 C   0  0  0  0  0  0  0  0  0  0  0  0
    4.5800    0.6830   22.1790 H   0  0  0  0  0  0  0  0  0  0  0  0
    2.7520    2.3220   22.2990 H   0  0  0  0  0  0  0  0  0  0  0  0
    1.8570    3.3900   20.2450 H   0  0  0  0  0  0  0  0  0  0  0  0
    2.8030    2.7920   18.0330 H   0  0  0  0  0  0  0  0  0  0  0  0
    4.3990    1.4840   16.6790 H   0  0  0  0  0  0  0  0  0  0  0  0
    7.0300   -1.1710   18.4030 H   0  0  0  0  0  0  0  0  0  0  0  0
    5.7240   -1.2880   21.7170 H   0  0  0  0  0  0  0  0  0  0  0  0
    7.1060   -1.6390   20.6930 H   0  0  0  0  0  0  0  0  0  0  0  0
    7.5430   -0.0930   23.2000 N   0  0  0  0  0  0  0  0  0  0  0  0
    7.0160   -1.2460   23.8160 C   0  0  0  0  0  0  0  0  0  0  0  0
    5.8960   -1.2510   24.5500 C   0  0  0  0  0  0  0  0  0  0  0  0
    5.1690   -0.0390   24.9420 C   0  0  0  0  0  0  0  0  0  0  0  0
    5.6840    0.9970   25.6230 C   0  0  0  0  0  0  0  0  0  0  0  0
    7.0470    1.0060   26.1810 C   0  0  0  0  0  0  0  0  0  0  0  0
    8.1640    0.8520   25.4710 C   0  0  0  0  0  0  0  0  0  0  0  0
    8.3190    0.9410   23.9620 C   0  0  1  0  0  0  0  0  0  0  0  0
    9.7920    0.8980   23.5750 C   0  0  0  0  0  0  0  0  0  0  0  0
   10.4590    2.0380   23.1310 C   0  0  0  0  0  0  0  0  0  0  0  0
   11.8010    1.9730   22.7660 C   0  0  0  0  0  0  0  0  0  0  0  0
   12.4880    0.7660   22.8570 C   0  0  0  0  0  0  0  0  0  0  0  0
   11.8300   -0.3720   23.3180 C   0  0  0  0  0  0  0  0  0  0  0  0
   10.4900   -0.3000   23.6780 C   0  0  0  0  0  0  0  0  0  0  0  0
    9.9680   -1.1810   24.0450 H   0  0  0  0  0  0  0  0  0  0  0  0
   12.3570   -1.3170   23.3960 H   0  0  0  0  0  0  0  0  0  0  0  0
   13.5330    0.7140   22.5700 H   0  0  0  0  0  0  0  0  0  0  0  0
   12.3040    2.8660   22.4070 H   0  0  0  0  0  0  0  0  0  0  0  0
    9.9120    2.9750   23.0550 H   0  0  0  0  0  0  0  0  0  0  0  0
    7.9150    1.9120   23.6610 H   0  0  0  0  0  0  0  0  0  0  0  0
    9.0980    0.7140   26.0070 H   0  0  0  0  0  0  0  0  0  0  0  0
    7.0950    1.1050   27.2710 H   0  0  0  0  0  0  0  0  0  0  0  0
    5.0580    1.8570   25.8540 H   0  0  0  0  0  0  0  0  0  0  0  0
    4.1100   -0.0190   24.6880 H   0  0  0  0  0  0  0  0  0  0  0  0
    5.5110   -2.2010   24.9170 H   0  0  0  0  0  0  0  0  0  0  0  0
    7.5790   -2.1570   23.6150 H   0  0  0  0  0  0  0  0  0  0  0  0
  1  2  2  0  0  0  0
  2  3  1  0  0  0  0
  2 22  1  0  0  0  0
  3  4  1  0  0  0  0
  3 20  1  0  0  0  0
  3 21  1  0  0  0  0
  4  5  2  0  0  0  0
  4 13  1  0  0  0  0
  5  6  1  0  0  0  0
  5 19  1  0  0  0  0
  6  7  2  0  0  0  0
  7  8  1  0  0  0  0
  7 18  1  0  0  0  0
  8  9  2  0  0  0  0
  8 13  1  0  0  0  0
  9 10  1  0  0  0  0
  9 17  1  0  0  0  0
 10 11  2  0  0  0  0
 10 16  1  0  0  0  0
 11 12  1  0  0  0  0
 11 15  1  0  0  0  0
 12 13  2  0  0  0  0
 12 14  1  0  0  0  0
 22 23  1  0  0  0  0
 22 29  1  0  0  0  0
 23 24  2  0  0  0  0
 23 47  1  0  0  0  0
 24 25  1  0  0  0  0
 24 46  1  0  0  0  0
 25 26  2  0  0  0  0
 25 45  1  0  0  0  0
 26 27  1  0  0  0  0
 26 44  1  0  0  0  0
 27 28  2  0  0  0  0
 27 43  1  0  0  0  0
 28 29  1  0  0  0  0
 28 42  1  0  0  0  0
 29 30  1  0  0  0  0
 29 41  1  6  0  0  0
 30 31  2  0  0  0  0
 30 35  1  0  0  0  0
 31 32  1  0  0  0  0
 31 40  1  0  0  0  0
 32 33  2  0  0  0  0
 32 39  1  0  0  0  0
 33 34  1  0  0  0  0
 33 38  1  0  0  0  0
 34 35  2  0  0  0  0
 34 37  1  0  0  0  0
 35 36  1  0  0  0  0
M  END
>  <MODEL>
       4

$$$$
best_conformers_92.pdb
 OpenBabel02042510453D

 47 50  0  0  1  0  0  0  0  0999 V2000
    7.7960    1.2110   21.3180 O   0  0  0  0  0  0  0  0  0  0  0  0
    7.4300    0.1520   21.7930 C   0  0  0  0  0  0  0  0  0  0  0  0
    6.4790   -0.7960   21.0520 C   0  0  0  0  0  0  0  0  0  0  0  0
    5.8160   -0.1670   19.8610 C   0  0  0  0  0  0  0  0  0  0  0  0
    6.2580   -0.4360   18.5950 C   0  0  0  0  0  0  0  0  0  0  0  0
    5.7850    0.1270   17.4510 N   0  0  0  0  0  0  0  0  0  0  0  0
    4.8090    0.9950   17.5860 C   0  0  0  0  0  0  0  0  0  0  0  0
    4.2400    1.3660   18.8360 C   0  0  0  0  0  0  0  0  0  0  0  0
    3.1910    2.3180   18.9350 C   0  0  0  0  0  0  0  0  0  0  0  0
    2.6700    2.6520   20.1560 C   0  0  0  0  0  0  0  0  0  0  0  0
    3.1720    2.0540   21.3330 C   0  0  0  0  0  0  0  0  0  0  0  0
    4.1900    1.1350   21.2640 C   0  0  0  0  0  0  0  0  0  0  0  0
    4.7510    0.7680   20.0110 C   0  0  0  0  0  0  0  0  0  0  0  0
    4.5830    0.6960   22.1760 H   0  0  0  0  0  0  0  0  0  0  0  0
    2.7540    2.3290   22.2970 H   0  0  0  0  0  0  0  0  0  0  0  0
    1.8690    3.3820   20.2300 H   0  0  0  0  0  0  0  0  0  0  0  0
    2.8190    2.7790   18.0230 H   0  0  0  0  0  0  0  0  0  0  0  0
    4.4200    1.4550   16.6760 H   0  0  0  0  0  0  0  0  0  0  0  0
    7.0590   -1.1600   18.4470 H   0  0  0  0  0  0  0  0  0  0  0  0
    7.0860   -1.6500   20.7230 H   0  0  0  0  0  0  0  0  0  0  0  0
    5.7420   -1.1880   21.7570 H   0  0  0  0  0  0  0  0  0  0  0  0
    7.8950   -0.3130   23.0170 N   0  0  0  0  0  0  0  0  0  0  0  0
    7.2200   -1.3070   23.7550 C   0  0  0  0  0  0  0  0  0  0  0  0
    7.7120   -2.5170   24.0480 C   0  0  0  0  0  0  0  0  0  0  0  0
    9.0670   -2.9920   23.8120 C   0  0  0  0  0  0  0  0  0  0  0  0
   10.1640   -2.4030   24.3470 C   0  0  0  0  0  0  0  0  0  0  0  0
   10.1170   -1.2200   25.2010 C   0  0  0  0  0  0  0  0  0  0  0  0
    9.3710   -0.1110   25.0100 C   0  0  0  0  0  0  0  0  0  0  0  0
    8.9990    0.4490   23.6500 C   0  0  1  0  0  0  0  0  0  0  0  0
   10.2290    0.4840   22.7430 C   0  0  0  0  0  0  0  0  0  0  0  0
   10.5570   -0.6160   21.9610 C   0  0  0  0  0  0  0  0  0  0  0  0
   11.8440   -0.7510   21.4560 C   0  0  0  0  0  0  0  0  0  0  0  0
   12.7350    0.3170   21.5840 C   0  0  0  0  0  0  0  0  0  0  0  0
   12.3320    1.5060   22.1890 C   0  0  0  0  0  0  0  0  0  0  0  0
   11.0990    1.5620   22.8250 C   0  0  0  0  0  0  0  0  0  0  0  0
   10.8030    2.4370   23.4030 H   0  0  0  0  0  0  0  0  0  0  0  0
   12.9900    2.3700   22.1940 H   0  0  0  0  0  0  0  0  0  0  0  0
   13.7440    0.2390   21.1910 H   0  0  0  0  0  0  0  0  0  0  0  0
   12.1390   -1.6790   20.9620 H   0  0  0  0  0  0  0  0  0  0  0  0
    9.8120   -1.3910   21.8070 H   0  0  0  0  0  0  0  0  0  0  0  0
    8.6400    1.4770   23.7930 H   0  0  0  0  0  0  0  0  0  0  0  0
    9.1110    0.4840   25.8860 H   0  0  0  0  0  0  0  0  0  0  0  0
   10.7760   -1.2590   26.0740 H   0  0  0  0  0  0  0  0  0  0  0  0
   11.1340   -2.8760   24.2010 H   0  0  0  0  0  0  0  0  0  0  0  0
    9.1710   -3.9610   23.3210 H   0  0  0  0  0  0  0  0  0  0  0  0
    7.0160   -3.2280   24.4920 H   0  0  0  0  0  0  0  0  0  0  0  0
    6.2270   -1.0320   24.1050 H   0  0  0  0  0  0  0  0  0  0  0  0
  1  2  2  0  0  0  0
  2  3  1  0  0  0  0
  2 22  1  0  0  0  0
  3  4  1  0  0  0  0
  3 20  1  0  0  0  0
  3 21  1  0  0  0  0
  4  5  2  0  0  0  0
  4 13  1  0  0  0  0
  5  6  1  0  0  0  0
  5 19  1  0  0  0  0
  6  7  2  0  0  0  0
  7  8  1  0  0  0  0
  7 18  1  0  0  0  0
  8  9  2  0  0  0  0
  8 13  1  0  0  0  0
  9 10  1  0  0  0  0
  9 17  1  0  0  0  0
 10 11  2  0  0  0  0
 10 16  1  0  0  0  0
 11 12  1  0  0  0  0
 11 15  1  0  0  0  0
 12 13  2  0  0  0  0
 12 14  1  0  0  0  0
 22 23  1  0  0  0  0
 22 29  1  0  0  0  0
 23 24  2  0  0  0  0
 23 47  1  0  0  0  0
 24 25  1  0  0  0  0
 24 46  1  0  0  0  0
 25 26  2  0  0  0  0
 25 45  1  0  0  0  0
 26 27  1  0  0  0  0
 26 44  1  0  0  0  0
 27 28  2  0  0  0  0
 27 43  1  0  0  0  0
 28 29  1  0  0  0  0
 28 42  1  0  0  0  0
 29 30  1  0  0  0  0
 29 41  1  1  0  0  0
 30 31  2  0  0  0  0
 30 35  1  0  0  0  0
 31 32  1  0  0  0  0
 31 40  1  0  0  0  0
 32 33  2  0  0  0  0
 32 39  1  0  0  0  0
 33 34  1  0  0  0  0
 33 38  1  0  0  0  0
 34 35  2  0  0  0  0
 34 37  1  0  0  0  0
 35 36  1  0  0  0  0
M  END
>  <MODEL>
       5

$$$$
best_conformers_92.pdb
 OpenBabel02042510453D

 47 50  0  0  1  0  0  0  0  0999 V2000
    7.7670    1.0970   21.1970 O   0  0  0  0  0  0  0  0  0  0  0  0
    7.4710    0.0090   21.6520 C   0  0  0  0  0  0  0  0  0  0  0  0
    6.4130   -0.8830   21.0270 C   0  0  0  0  0  0  0  0  0  0  0  0
    5.7810   -0.2190   19.8540 C   0  0  0  0  0  0  0  0  0  0  0  0
    6.2690   -0.4500   18.5970 C   0  0  0  0  0  0  0  0  0  0  0  0
    5.8160    0.1290   17.4550 N   0  0  0  0  0  0  0  0  0  0  0  0
    4.8280    0.9820   17.5930 C   0  0  0  0  0  0  0  0  0  0  0  0
    4.2590    1.3550   18.8420 C   0  0  0  0  0  0  0  0  0  0  0  0
    3.2120    2.3050   18.9430 C   0  0  0  0  0  0  0  0  0  0  0  0
    2.6860    2.6410   20.1600 C   0  0  0  0  0  0  0  0  0  0  0  0
    3.1850    2.0440   21.3400 C   0  0  0  0  0  0  0  0  0  0  0  0
    4.2020    1.1220   21.2780 C   0  0  0  0  0  0  0  0  0  0  0  0
    4.7530    0.7480   20.0200 C   0  0  0  0  0  0  0  0  0  0  0  0
    4.5920    0.6890   22.1980 H   0  0  0  0  0  0  0  0  0  0  0  0
    2.7610    2.3220   22.3030 H   0  0  0  0  0  0  0  0  0  0  0  0
    1.8790    3.3700   20.2320 H   0  0  0  0  0  0  0  0  0  0  0  0
    2.8380    2.7630   18.0300 H   0  0  0  0  0  0  0  0  0  0  0  0
    4.4350    1.4420   16.6840 H   0  0  0  0  0  0  0  0  0  0  0  0
    7.0910   -1.1560   18.4770 H   0  0  0  0  0  0  0  0  0  0  0  0
    5.6880   -1.1600   21.7980 H   0  0  0  0  0  0  0  0  0  0  0  0
    6.9470   -1.7910   20.7140 H   0  0  0  0  0  0  0  0  0  0  0  0
    8.1400   -0.5150   22.7580 N   0  0  0  0  0  0  0  0  0  0  0  0
    9.3410    0.1560   23.0740 C   0  0  0  0  0  0  0  0  0  0  0  0
    9.5410    0.8930   24.1690 C   0  0  0  0  0  0  0  0  0  0  0  0
    8.7010    0.9450   25.3530 C   0  0  0  0  0  0  0  0  0  0  0  0
    8.4710   -0.1260   26.1550 C   0  0  0  0  0  0  0  0  0  0  0  0
    8.8050   -1.4890   25.8200 C   0  0  0  0  0  0  0  0  0  0  0  0
    8.6290   -2.0670   24.6210 C   0  0  0  0  0  0  0  0  0  0  0  0
    7.6170   -1.6120   23.6010 C   0  0  1  0  0  0  0  0  0  0  0  0
    6.2550   -1.3100   24.2440 C   0  0  0  0  0  0  0  0  0  0  0  0
    5.5050   -2.4180   24.6310 C   0  0  0  0  0  0  0  0  0  0  0  0
    4.2620   -2.2660   25.2310 C   0  0  0  0  0  0  0  0  0  0  0  0
    3.7720   -0.9900   25.4860 C   0  0  0  0  0  0  0  0  0  0  0  0
    4.5250    0.1270   25.1360 C   0  0  0  0  0  0  0  0  0  0  0  0
    5.7510   -0.0350   24.4980 C   0  0  0  0  0  0  0  0  0  0  0  0
    6.3260    0.8510   24.2390 H   0  0  0  0  0  0  0  0  0  0  0  0
    4.1620    1.1290   25.3600 H   0  0  0  0  0  0  0  0  0  0  0  0
    2.8130   -0.8590   25.9730 H   0  0  0  0  0  0  0  0  0  0  0  0
    3.6830   -3.1430   25.5120 H   0  0  0  0  0  0  0  0  0  0  0  0
    5.9050   -3.4150   24.4630 H   0  0  0  0  0  0  0  0  0  0  0  0
    7.4590   -2.4850   22.9480 H   0  0  0  0  0  0  0  0  0  0  0  0
    9.2010   -2.9660   24.3920 H   0  0  0  0  0  0  0  0  0  0  0  0
    9.2360   -2.0810   26.6310 H   0  0  0  0  0  0  0  0  0  0  0  0
    8.0970    0.0520   27.1590 H   0  0  0  0  0  0  0  0  0  0  0  0
    8.4040    1.9300   25.7080 H   0  0  0  0  0  0  0  0  0  0  0  0
   10.3740    1.5970   24.1150 H   0  0  0  0  0  0  0  0  0  0  0  0
   10.0660    0.1490   22.2640 H   0  0  0  0  0  0  0  0  0  0  0  0
  1  2  2  0  0  0  0
  2  3  1  0  0  0  0
  2 22  1  0  0  0  0
  3  4  1  0  0  0  0
  3 20  1  0  0  0  0
  3 21  1  0  0  0  0
  4  5  2  0  0  0  0
  4 13  1  0  0  0  0
  5  6  1  0  0  0  0
  5 19  1  0  0  0  0
  6  7  2  0  0  0  0
  7  8  1  0  0  0  0
  7 18  1  0  0  0  0
  8  9  2  0  0  0  0
  8 13  1  0  0  0  0
  9 10  1  0  0  0  0
  9 17  1  0  0  0  0
 10 11  2  0  0  0  0
 10 16  1  0  0  0  0
 11 12  1  0  0  0  0
 11 15  1  0  0  0  0
 12 13  2  0  0  0  0
 12 14  1  0  0  0  0
 22 23  1  0  0  0  0
 22 29  1  0  0  0  0
 23 24  2  0  0  0  0
 23 47  1  0  0  0  0
 24 25  1  0  0  0  0
 24 46  1  0  0  0  0
 25 26  2  0  0  0  0
 25 45  1  0  0  0  0
 26 27  1  0  0  0  0
 26 44  1  0  0  0  0
 27 28  2  0  0  0  0
 27 43  1  0  0  0  0
 28 29  1  0  0  0  0
 28 42  1  0  0  0  0
 29 30  1  0  0  0  0
 29 41  1  6  0  0  0
 30 31  2  0  0  0  0
 30 35  1  0  0  0  0
 31 32  1  0  0  0  0
 31 40  1  0  0  0  0
 32 33  2  0  0  0  0
 32 39  1  0  0  0  0
 33 34  1  0  0  0  0
 33 38  1  0  0  0  0
 34 35  2  0  0  0  0
 34 37  1  0  0  0  0
 35 36  1  0  0  0  0
M  END
>  <MODEL>
       6

$$$$
best_conformers_92.pdb
 OpenBabel02042510453D

 47 50  0  0  1  0  0  0  0  0999 V2000
    8.8880   -1.0840   20.5540 O   0  0  0  0  0  0  0  0  0  0  0  0
    8.0120   -0.4350   21.0940 C   0  0  0  0  0  0  0  0  0  0  0  0
    6.5400   -0.8070   20.9820 C   0  0  0  0  0  0  0  0  0  0  0  0
    5.8330   -0.1310   19.8350 C   0  0  0  0  0  0  0  0  0  0  0  0
    6.2460   -0.4260   18.5630 C   0  0  0  0  0  0  0  0  0  0  0  0
    5.7570    0.1330   17.4300 N   0  0  0  0  0  0  0  0  0  0  0  0
    4.7950    1.0130   17.5800 C   0  0  0  0  0  0  0  0  0  0  0  0
    4.2290    1.3830   18.8320 C   0  0  0  0  0  0  0  0  0  0  0  0
    3.1770    2.3340   18.9310 C   0  0  0  0  0  0  0  0  0  0  0  0
    2.6470    2.6600   20.1450 C   0  0  0  0  0  0  0  0  0  0  0  0
    3.1380    2.0530   21.3200 C   0  0  0  0  0  0  0  0  0  0  0  0
    4.1580    1.1350   21.2480 C   0  0  0  0  0  0  0  0  0  0  0  0
    4.7460    0.7790   20.0040 C   0  0  0  0  0  0  0  0  0  0  0  0
    4.5350    0.6930   22.1640 H   0  0  0  0  0  0  0  0  0  0  0  0
    2.7070    2.3230   22.2830 H   0  0  0  0  0  0  0  0  0  0  0  0
    1.8460    3.3910   20.2150 H   0  0  0  0  0  0  0  0  0  0  0  0
    2.8180    2.7940   18.0120 H   0  0  0  0  0  0  0  0  0  0  0  0
    4.4060    1.4730   16.6700 H   0  0  0  0  0  0  0  0  0  0  0  0
    7.0380   -1.1610   18.4300 H   0  0  0  0  0  0  0  0  0  0  0  0
    6.5630   -1.8910   20.8290 H   0  0  0  0  0  0  0  0  0  0  0  0
    6.0370   -0.5990   21.9220 H   0  0  0  0  0  0  0  0  0  0  0  0
    8.2950    0.6540   21.8980 N   0  0  0  0  0  0  0  0  0  0  0  0
    7.3770    1.7240   21.9960 C   0  0  0  0  0  0  0  0  0  0  0  0
    6.7440    2.1180   23.1220 C   0  0  0  0  0  0  0  0  0  0  0  0
    7.0730    1.6570   24.4550 C   0  0  0  0  0  0  0  0  0  0  0  0
    8.3260    1.7610   24.9600 C   0  0  0  0  0  0  0  0  0  0  0  0
    9.4460    2.3800   24.2410 C   0  0  0  0  0  0  0  0  0  0  0  0
    9.9600    2.0390   23.0550 C   0  0  0  0  0  0  0  0  0  0  0  0
    9.7220    0.7610   22.3120 C   0  0  1  0  0  0  0  0  0  0  0  0
   10.1890   -0.4440   23.1350 C   0  0  0  0  0  0  0  0  0  0  0  0
   11.5500   -0.7420   23.1480 C   0  0  0  0  0  0  0  0  0  0  0  0
   12.0400   -1.8130   23.8870 C   0  0  0  0  0  0  0  0  0  0  0  0
   11.1620   -2.5900   24.6400 C   0  0  0  0  0  0  0  0  0  0  0  0
    9.8060   -2.2720   24.6630 C   0  0  0  0  0  0  0  0  0  0  0  0
    9.3250   -1.1940   23.9240 C   0  0  0  0  0  0  0  0  0  0  0  0
    8.2720   -0.9140   23.9580 H   0  0  0  0  0  0  0  0  0  0  0  0
    9.1220   -2.8760   25.2560 H   0  0  0  0  0  0  0  0  0  0  0  0
   11.5380   -3.4390   25.2080 H   0  0  0  0  0  0  0  0  0  0  0  0
   13.1030   -2.0400   23.8690 H   0  0  0  0  0  0  0  0  0  0  0  0
   12.2360   -0.1110   22.5800 H   0  0  0  0  0  0  0  0  0  0  0  0
   10.3330    0.7480   21.4020 H   0  0  0  0  0  0  0  0  0  0  0  0
   10.7620    2.6580   22.6750 H   0  0  0  0  0  0  0  0  0  0  0  0
    9.9950    3.1700   24.7390 H   0  0  0  0  0  0  0  0  0  0  0  0
    8.5130    1.4670   25.9880 H   0  0  0  0  0  0  0  0  0  0  0  0
    6.2540    1.3250   25.1040 H   0  0  0  0  0  0  0  0  0  0  0  0
    5.9510    2.8640   23.0210 H   0  0  0  0  0  0  0  0  0  0  0  0
    7.1080    2.1590   21.0320 H   0  0  0  0  0  0  0  0  0  0  0  0
  1  2  2  0  0  0  0
  2  3  1  0  0  0  0
  2 22  1  0  0  0  0
  3  4  1  0  0  0  0
  3 20  1  0  0  0  0
  3 21  1  0  0  0  0
  4  5  2  0  0  0  0
  4 13  1  0  0  0  0
  5  6  1  0  0  0  0
  5 19  1  0  0  0  0
  6  7  2  0  0  0  0
  7  8  1  0  0  0  0
  7 18  1  0  0  0  0
  8  9  2  0  0  0  0
  8 13  1  0  0  0  0
  9 10  1  0  0  0  0
  9 17  1  0  0  0  0
 10 11  2  0  0  0  0
 10 16  1  0  0  0  0
 11 12  1  0  0  0  0
 11 15  1  0  0  0  0
 12 13  2  0  0  0  0
 12 14  1  0  0  0  0
 22 23  1  0  0  0  0
 22 29  1  0  0  0  0
 23 24  2  0  0  0  0
 23 47  1  0  0  0  0
 24 25  1  0  0  0  0
 24 46  1  0  0  0  0
 25 26  2  0  0  0  0
 25 45  1  0  0  0  0
 26 27  1  0  0  0  0
 26 44  1  0  0  0  0
 27 28  2  0  0  0  0
 27 43  1  0  0  0  0
 28 29  1  0  0  0  0
 28 42  1  0  0  0  0
 29 30  1  0  0  0  0
 29 41  1  6  0  0  0
 30 31  2  0  0  0  0
 30 35  1  0  0  0  0
 31 32  1  0  0  0  0
 31 40  1  0  0  0  0
 32 33  2  0  0  0  0
 32 39  1  0  0  0  0
 33 34  1  0  0  0  0
 33 38  1  0  0  0  0
 34 35  2  0  0  0  0
 34 37  1  0  0  0  0
 35 36  1  0  0  0  0
M  END
>  <MODEL>
       7

$$$$
best_conformers_92.pdb
 OpenBabel02042510453D

 47 50  0  0  1  0  0  0  0  0999 V2000
    8.8880   -1.0840   20.5540 O   0  0  0  0  0  0  0  0  0  0  0  0
    8.0120   -0.4350   21.0940 C   0  0  0  0  0  0  0  0  0  0  0  0
    6.5400   -0.8070   20.9820 C   0  0  0  0  0  0  0  0  0  0  0  0
    5.8330   -0.1310   19.8350 C   0  0  0  0  0  0  0  0  0  0  0  0
    6.2460   -0.4260   18.5630 C   0  0  0  0  0  0  0  0  0  0  0  0
    5.7570    0.1330   17.4300 N   0  0  0  0  0  0  0  0  0  0  0  0
    4.7950    1.0130   17.5800 C   0  0  0  0  0  0  0  0  0  0  0  0
    4.2290    1.3830   18.8320 C   0  0  0  0  0  0  0  0  0  0  0  0
    3.1770    2.3340   18.9310 C   0  0  0  0  0  0  0  0  0  0  0  0
    2.6470    2.6600   20.1450 C   0  0  0  0  0  0  0  0  0  0  0  0
    3.1380    2.0530   21.3200 C   0  0  0  0  0  0  0  0  0  0  0  0
    4.1580    1.1350   21.2480 C   0  0  0  0  0  0  0  0  0  0  0  0
    4.7460    0.7790   20.0040 C   0  0  0  0  0  0  0  0  0  0  0  0
    4.5350    0.6930   22.1640 H   0  0  0  0  0  0  0  0  0  0  0  0
    2.7070    2.3230   22.2830 H   0  0  0  0  0  0  0  0  0  0  0  0
    1.8460    3.3910   20.2150 H   0  0  0  0  0  0  0  0  0  0  0  0
    2.8180    2.7940   18.0120 H   0  0  0  0  0  0  0  0  0  0  0  0
    4.4060    1.4730   16.6700 H   0  0  0  0  0  0  0  0  0  0  0  0
    7.0380   -1.1610   18.4300 H   0  0  0  0  0  0  0  0  0  0  0  0
    6.0370   -0.5990   21.9220 H   0  0  0  0  0  0  0  0  0  0  0  0
    6.5630   -1.8910   20.8290 H   0  0  0  0  0  0  0  0  0  0  0  0
    8.2950    0.6540   21.8980 N   0  0  0  0  0  0  0  0  0  0  0  0
    7.3770    1.7240   21.9950 C   0  0  0  0  0  0  0  0  0  0  0  0
    6.7440    2.1180   23.1220 C   0  0  0  0  0  0  0  0  0  0  0  0
    7.0730    1.6570   24.4550 C   0  0  0  0  0  0  0  0  0  0  0  0
    8.3260    1.7610   24.9600 C   0  0  0  0  0  0  0  0  0  0  0  0
    9.4470    2.3800   24.2410 C   0  0  0  0  0  0  0  0  0  0  0  0
    9.9600    2.0390   23.0550 C   0  0  0  0  0  0  0  0  0  0  0  0
    9.7220    0.7610   22.3120 C   0  0  1  0  0  0  0  0  0  0  0  0
   10.1890   -0.4440   23.1350 C   0  0  0  0  0  0  0  0  0  0  0  0
    9.3250   -1.1940   23.9240 C   0  0  0  0  0  0  0  0  0  0  0  0
    9.8060   -2.2720   24.6630 C   0  0  0  0  0  0  0  0  0  0  0  0
   11.1620   -2.5900   24.6400 C   0  0  0  0  0  0  0  0  0  0  0  0
   12.0400   -1.8130   23.8870 C   0  0  0  0  0  0  0  0  0  0  0  0
   11.5500   -0.7420   23.1480 C   0  0  0  0  0  0  0  0  0  0  0  0
   12.2360   -0.1120   22.5800 H   0  0  0  0  0  0  0  0  0  0  0  0
   13.1030   -2.0400   23.8690 H   0  0  0  0  0  0  0  0  0  0  0  0
   11.5380   -3.4400   25.2080 H   0  0  0  0  0  0  0  0  0  0  0  0
    9.1210   -2.8760   25.2560 H   0  0  0  0  0  0  0  0  0  0  0  0
    8.2720   -0.9140   23.9580 H   0  0  0  0  0  0  0  0  0  0  0  0
   10.3330    0.7480   21.4020 H   0  0  0  0  0  0  0  0  0  0  0  0
   10.7620    2.6580   22.6750 H   0  0  0  0  0  0  0  0  0  0  0  0
    9.9950    3.1700   24.7390 H   0  0  0  0  0  0  0  0  0  0  0  0
    8.5130    1.4670   25.9880 H   0  0  0  0  0  0  0  0  0  0  0  0
    6.2540    1.3250   25.1040 H   0  0  0  0  0  0  0  0  0  0  0  0
    5.9510    2.8640   23.0210 H   0  0  0  0  0  0  0  0  0  0  0  0
    7.1080    2.1590   21.0320 H   0  0  0  0  0  0  0  0  0  0  0  0
  1  2  2  0  0  0  0
  2  3  1  0  0  0  0
  2 22  1  0  0  0  0
  3  4  1  0  0  0  0
  3 20  1  0  0  0  0
  3 21  1  0  0  0  0
  4  5  2  0  0  0  0
  4 13  1  0  0  0  0
  5  6  1  0  0  0  0
  5 19  1  0  0  0  0
  6  7  2  0  0  0  0
  7  8  1  0  0  0  0
  7 18  1  0  0  0  0
  8  9  2  0  0  0  0
  8 13  1  0  0  0  0
  9 10  1  0  0  0  0
  9 17  1  0  0  0  0
 10 11  2  0  0  0  0
 10 16  1  0  0  0  0
 11 12  1  0  0  0  0
 11 15  1  0  0  0  0
 12 13  2  0  0  0  0
 12 14  1  0  0  0  0
 22 23  1  0  0  0  0
 22 29  1  0  0  0  0
 23 24  2  0  0  0  0
 23 47  1  0  0  0  0
 24 25  1  0  0  0  0
 24 46  1  0  0  0  0
 25 26  2  0  0  0  0
 25 45  1  0  0  0  0
 26 27  1  0  0  0  0
 26 44  1  0  0  0  0
 27 28  2  0  0  0  0
 27 43  1  0  0  0  0
 28 29  1  0  0  0  0
 28 42  1  0  0  0  0
 29 30  1  0  0  0  0
 29 41  1  6  0  0  0
 30 31  2  0  0  0  0
 30 35  1  0  0  0  0
 31 32  1  0  0  0  0
 31 40  1  0  0  0  0
 32 33  2  0  0  0  0
 32 39  1  0  0  0  0
 33 34  1  0  0  0  0
 33 38  1  0  0  0  0
 34 35  2  0  0  0  0
 34 37  1  0  0  0  0
 35 36  1  0  0  0  0
M  END
>  <MODEL>
       8

$$$$
best_conformers_92.pdb
 OpenBabel02042510453D

 47 50  0  0  1  0  0  0  0  0999 V2000
    7.7710    1.0990   21.1930 O   0  0  0  0  0  0  0  0  0  0  0  0
    7.4750    0.0100   21.6490 C   0  0  0  0  0  0  0  0  0  0  0  0
    6.4150   -0.8810   21.0270 C   0  0  0  0  0  0  0  0  0  0  0  0
    5.7820   -0.2180   19.8540 C   0  0  0  0  0  0  0  0  0  0  0  0
    6.2690   -0.4500   18.5970 C   0  0  0  0  0  0  0  0  0  0  0  0
    5.8160    0.1290   17.4550 N   0  0  0  0  0  0  0  0  0  0  0  0
    4.8270    0.9820   17.5930 C   0  0  0  0  0  0  0  0  0  0  0  0
    4.2590    1.3560   18.8420 C   0  0  0  0  0  0  0  0  0  0  0  0
    3.2120    2.3060   18.9430 C   0  0  0  0  0  0  0  0  0  0  0  0
    2.6860    2.6410   20.1600 C   0  0  0  0  0  0  0  0  0  0  0  0
    3.1850    2.0450   21.3400 C   0  0  0  0  0  0  0  0  0  0  0  0
    4.2020    1.1230   21.2780 C   0  0  0  0  0  0  0  0  0  0  0  0
    4.7530    0.7480   20.0200 C   0  0  0  0  0  0  0  0  0  0  0  0
    4.5920    0.6890   22.1980 H   0  0  0  0  0  0  0  0  0  0  0  0
    2.7610    2.3220   22.3030 H   0  0  0  0  0  0  0  0  0  0  0  0
    1.8790    3.3710   20.2330 H   0  0  0  0  0  0  0  0  0  0  0  0
    2.8380    2.7630   18.0300 H   0  0  0  0  0  0  0  0  0  0  0  0
    4.4340    1.4420   16.6840 H   0  0  0  0  0  0  0  0  0  0  0  0
    7.0900   -1.1560   18.4760 H   0  0  0  0  0  0  0  0  0  0  0  0
    5.6910   -1.1570   21.8000 H   0  0  0  0  0  0  0  0  0  0  0  0
    6.9470   -1.7890   20.7150 H   0  0  0  0  0  0  0  0  0  0  0  0
    8.1450   -0.5130   22.7540 N   0  0  0  0  0  0  0  0  0  0  0  0
    9.3460    0.1580   23.0690 C   0  0  0  0  0  0  0  0  0  0  0  0
    9.5460    0.8960   24.1630 C   0  0  0  0  0  0  0  0  0  0  0  0
    8.7040    0.9510   25.3450 C   0  0  0  0  0  0  0  0  0  0  0  0
    8.4770   -0.1170   26.1510 C   0  0  0  0  0  0  0  0  0  0  0  0
    8.8120   -1.4810   25.8190 C   0  0  0  0  0  0  0  0  0  0  0  0
    8.6320   -2.0610   24.6210 C   0  0  0  0  0  0  0  0  0  0  0  0
    7.6210   -1.6070   23.6010 C   0  0  1  0  0  0  0  0  0  0  0  0
    6.2600   -1.3010   24.2450 C   0  0  0  0  0  0  0  0  0  0  0  0
    5.7570   -0.0250   24.4970 C   0  0  0  0  0  0  0  0  0  0  0  0
    4.5340    0.1410   25.1380 C   0  0  0  0  0  0  0  0  0  0  0  0
    3.7790   -0.9730   25.4920 C   0  0  0  0  0  0  0  0  0  0  0  0
    4.2670   -2.2510   25.2400 C   0  0  0  0  0  0  0  0  0  0  0  0
    5.5090   -2.4050   24.6370 C   0  0  0  0  0  0  0  0  0  0  0  0
    5.9070   -3.4040   24.4710 H   0  0  0  0  0  0  0  0  0  0  0  0
    3.6870   -3.1260   25.5230 H   0  0  0  0  0  0  0  0  0  0  0  0
    2.8210   -0.8390   25.9810 H   0  0  0  0  0  0  0  0  0  0  0  0
    4.1730    1.1440   25.3610 H   0  0  0  0  0  0  0  0  0  0  0  0
    6.3330    0.8600   24.2340 H   0  0  0  0  0  0  0  0  0  0  0  0
    7.4590   -2.4810   22.9500 H   0  0  0  0  0  0  0  0  0  0  0  0
    9.2020   -2.9610   24.3930 H   0  0  0  0  0  0  0  0  0  0  0  0
    9.2450   -2.0700   26.6310 H   0  0  0  0  0  0  0  0  0  0  0  0
    8.1020    0.0620   27.1550 H   0  0  0  0  0  0  0  0  0  0  0  0
    8.4010    1.9370   25.6950 H   0  0  0  0  0  0  0  0  0  0  0  0
   10.3830    1.5960   24.1090 H   0  0  0  0  0  0  0  0  0  0  0  0
   10.0720    0.1490   22.2600 H   0  0  0  0  0  0  0  0  0  0  0  0
  1  2  2  0  0  0  0
  2  3  1  0  0  0  0
  2 22  1  0  0  0  0
  3  4  1  0  0  0  0
  3 20  1  0  0  0  0
  3 21  1  0  0  0  0
  4  5  2  0  0  0  0
  4 13  1  0  0  0  0
  5  6  1  0  0  0  0
  5 19  1  0  0  0  0
  6  7  2  0  0  0  0
  7  8  1  0  0  0  0
  7 18  1  0  0  0  0
  8  9  2  0  0  0  0
  8 13  1  0  0  0  0
  9 10  1  0  0  0  0
  9 17  1  0  0  0  0
 10 11  2  0  0  0  0
 10 16  1  0  0  0  0
 11 12  1  0  0  0  0
 11 15  1  0  0  0  0
 12 13  2  0  0  0  0
 12 14  1  0  0  0  0
 22 23  1  0  0  0  0
 22 29  1  0  0  0  0
 23 24  2  0  0  0  0
 23 47  1  0  0  0  0
 24 25  1  0  0  0  0
 24 46  1  0  0  0  0
 25 26  2  0  0  0  0
 25 45  1  0  0  0  0
 26 27  1  0  0  0  0
 26 44  1  0  0  0  0
 27 28  2  0  0  0  0
 27 43  1  0  0  0  0
 28 29  1  0  0  0  0
 28 42  1  0  0  0  0
 29 30  1  0  0  0  0
 29 41  1  6  0  0  0
 30 31  2  0  0  0  0
 30 35  1  0  0  0  0
 31 32  1  0  0  0  0
 31 40  1  0  0  0  0
 32 33  2  0  0  0  0
 32 39  1  0  0  0  0
 33 34  1  0  0  0  0
 33 38  1  0  0  0  0
 34 35  2  0  0  0  0
 34 37  1  0  0  0  0
 35 36  1  0  0  0  0
M  END
>  <MODEL>
       9

$$$$
