best_conformers_95.pdb
 OpenBabel02042510453D

 67 71  0  0  1  0  0  0  0  0999 V2000
    4.9150    0.1390   29.5240 C   0  0  0  0  0  0  0  0  0  0  0  0
    5.2980   -0.9020   28.5880 N   0  0  0  0  0  0  0  0  0  0  0  0
    4.9750   -0.7550   27.2720 C   0  0  0  0  0  0  0  0  0  0  0  0
    4.3260    0.1850   26.8440 O   0  0  0  0  0  0  0  0  0  0  0  0
    5.4680   -1.8840   26.3670 C   0  0  0  0  0  0  0  0  0  0  0  0
    6.5470   -1.4530   25.5030 N   0  0  0  0  0  0  0  0  0  0  0  0
    6.2740   -0.7470   24.2700 C   0  0  0  0  0  0  0  0  0  0  0  0
    7.2770   -1.1150   23.1520 C   0  0  2  0  0  0  0  0  0  0  0  0
    7.0370   -0.1500   21.9890 C   0  0  0  0  0  0  0  0  0  0  0  0
    7.2950    1.0330   21.9460 O   0  0  0  0  0  0  0  0  0  0  0  0
    6.4130   -0.8340   20.9700 N   0  0  0  0  0  0  0  0  0  0  0  0
    5.8300   -0.1690   19.8710 C   0  0  0  0  0  0  0  0  0  0  0  0
    6.2690   -0.4660   18.6050 C   0  0  0  0  0  0  0  0  0  0  0  0
    5.8010    0.1100   17.4730 N   0  0  0  0  0  0  0  0  0  0  0  0
    4.8310    0.9850   17.6130 C   0  0  0  0  0  0  0  0  0  0  0  0
    4.2580    1.3530   18.8650 C   0  0  0  0  0  0  0  0  0  0  0  0
    3.1980    2.2950   18.9490 C   0  0  0  0  0  0  0  0  0  0  0  0
    2.6380    2.6090   20.1560 C   0  0  0  0  0  0  0  0  0  0  0  0
    3.1050    1.9950   21.3400 C   0  0  0  0  0  0  0  0  0  0  0  0
    4.1360    1.0880   21.2910 C   0  0  0  0  0  0  0  0  0  0  0  0
    4.7530    0.7580   20.0440 C   0  0  0  0  0  0  0  0  0  0  0  0
    4.4820    0.6330   22.2150 H   0  0  0  0  0  0  0  0  0  0  0  0
    2.6490    2.2500   22.2940 H   0  0  0  0  0  0  0  0  0  0  0  0
    1.8310    3.3350   20.2150 H   0  0  0  0  0  0  0  0  0  0  0  0
    2.8490    2.7590   18.0310 H   0  0  0  0  0  0  0  0  0  0  0  0
    4.4380    1.4450   16.7060 H   0  0  0  0  0  0  0  0  0  0  0  0
    7.0660   -1.1970   18.4800 H   0  0  0  0  0  0  0  0  0  0  0  0
    6.1350   -2.2230   21.2570 C   0  0  0  0  0  0  0  0  0  0  0  0
    7.0070   -2.5040   22.4900 C   0  0  2  0  0  0  0  0  0  0  0  0
    6.4250   -3.5480   23.4370 C   0  0  0  0  0  0  0  0  0  0  0  0
    6.4370   -5.1410   22.6480 S   0  0  0  0  0  0  0  0  0  0  0  0
    5.4430   -5.1890   21.5820 O   0  0  0  0  0  0  0  0  0  0  0  0
    7.8310   -5.4110   22.3880 O   0  0  0  0  0  0  0  0  0  0  0  0
    5.9740   -6.1910   23.8420 N   0  0  0  0  0  0  0  0  0  0  0  0
    6.9470   -6.4980   24.8800 C   0  0  0  0  0  0  0  0  0  0  0  0
    7.0550   -5.6950   25.6290 H   0  0  0  0  0  0  0  0  0  0  0  0
    6.6330   -7.4200   25.3840 H   0  0  0  0  0  0  0  0  0  0  0  0
    7.9150   -6.6720   24.4090 H   0  0  0  0  0  0  0  0  0  0  0  0
    4.5780   -6.1870   24.2330 C   0  0  0  0  0  0  0  0  0  0  0  0
    4.3690   -7.1270   24.7530 H   0  0  0  0  0  0  0  0  0  0  0  0
    3.9700   -6.1510   23.3290 H   0  0  0  0  0  0  0  0  0  0  0  0
    4.3010   -5.3450   24.8890 H   0  0  0  0  0  0  0  0  0  0  0  0
    7.0620   -3.6270   24.3250 H   0  0  0  0  0  0  0  0  0  0  0  0
    5.4060   -3.3090   23.7430 H   0  0  0  0  0  0  0  0  0  0  0  0
    7.9750   -2.8840   22.1380 H   0  0  0  0  0  0  0  0  0  0  0  0
    5.0650   -2.3730   21.4540 H   0  0  0  0  0  0  0  0  0  0  0  0
    6.3880   -2.8440   20.3990 H   0  0  0  0  0  0  0  0  0  0  0  0
    8.6740   -1.0080   23.7220 C   0  0  0  0  0  0  0  0  0  0  0  0
    9.7630   -0.7790   22.8770 C   0  0  0  0  0  0  0  0  0  0  0  0
   11.0330   -0.7270   23.4170 C   0  0  0  0  0  0  0  0  0  0  0  0
   12.0740   -0.5220   22.5930 F   0  0  0  0  0  0  0  0  0  0  0  0
   11.2850   -0.8910   24.7750 C   0  0  0  0  0  0  0  0  0  0  0  0
   10.2080   -1.1350   25.6090 C   0  0  0  0  0  0  0  0  0  0  0  0
    8.9160   -1.1970   25.0880 C   0  0  0  0  0  0  0  0  0  0  0  0
    7.8050   -1.5460   26.0130 C   0  0  0  0  0  0  0  0  0  0  0  0
    7.9980   -1.9440   27.1560 O   0  0  0  0  0  0  0  0  0  0  0  0
   10.3370   -1.2860   26.6760 H   0  0  0  0  0  0  0  0  0  0  0  0
   12.3080   -0.8440   25.1370 H   0  0  0  0  0  0  0  0  0  0  0  0
    9.6240   -0.6400   21.8100 H   0  0  0  0  0  0  0  0  0  0  0  0
    5.2540   -0.9880   23.9530 H   0  0  0  0  0  0  0  0  0  0  0  0
    6.3240    0.3370   24.4300 H   0  0  0  0  0  0  0  0  0  0  0  0
    5.8500   -2.7190   26.9640 H   0  0  0  0  0  0  0  0  0  0  0  0
    4.6170   -2.2080   25.7580 H   0  0  0  0  0  0  0  0  0  0  0  0
    6.0230   -1.5590   28.8470 H   0  0  0  0  0  0  0  0  0  0  0  0
    5.3160    1.1100   29.2120 H   0  0  0  0  0  0  0  0  0  0  0  0
    5.2850   -0.1070   30.5230 H   0  0  0  0  0  0  0  0  0  0  0  0
    3.8250    0.2240   29.5610 H   0  0  0  0  0  0  0  0  0  0  0  0
  1  2  1  0  0  0  0
  1 65  1  0  0  0  0
  1 66  1  0  0  0  0
  1 67  1  0  0  0  0
  2  3  1  0  0  0  0
  2 64  1  0  0  0  0
  3  4  2  0  0  0  0
  3  5  1  0  0  0  0
  5  6  1  0  0  0  0
  5 62  1  0  0  0  0
  5 63  1  0  0  0  0
  6  7  1  0  0  0  0
  6 55  1  0  0  0  0
  7  8  1  0  0  0  0
  7 60  1  0  0  0  0
  7 61  1  0  0  0  0
  8  9  1  6  0  0  0
  8 29  1  0  0  0  0
  8 48  1  0  0  0  0
  9 10  2  0  0  0  0
  9 11  1  0  0  0  0
 11 12  1  0  0  0  0
 11 28  1  0  0  0  0
 12 13  2  0  0  0  0
 12 21  1  0  0  0  0
 13 14  1  0  0  0  0
 13 27  1  0  0  0  0
 14 15  2  0  0  0  0
 15 16  1  0  0  0  0
 15 26  1  0  0  0  0
 16 17  2  0  0  0  0
 16 21  1  0  0  0  0
 17 18  1  0  0  0  0
 17 25  1  0  0  0  0
 18 19  2  0  0  0  0
 18 24  1  0  0  0  0
 19 20  1  0  0  0  0
 19 23  1  0  0  0  0
 20 21  2  0  0  0  0
 20 22  1  0  0  0  0
 28 29  1  0  0  0  0
 28 46  1  0  0  0  0
 28 47  1  0  0  0  0
 29 30  1  0  0  0  0
 29 45  1  6  0  0  0
 30 31  1  0  0  0  0
 30 43  1  0  0  0  0
 30 44  1  0  0  0  0
 31 32  2  0  0  0  0
 31 33  2  0  0  0  0
 31 34  1  0  0  0  0
 34 35  1  0  0  0  0
 34 39  1  0  0  0  0
 35 36  1  0  0  0  0
 35 37  1  0  0  0  0
 35 38  1  0  0  0  0
 39 40  1  0  0  0  0
 39 41  1  0  0  0  0
 39 42  1  0  0  0  0
 48 49  2  0  0  0  0
 48 54  1  0  0  0  0
 49 50  1  0  0  0  0
 49 59  1  0  0  0  0
 50 51  1  0  0  0  0
 50 52  2  0  0  0  0
 52 53  1  0  0  0  0
 52 58  1  0  0  0  0
 53 54  2  0  0  0  0
 53 57  1  0  0  0  0
 54 55  1  0  0  0  0
 55 56  2  0  0  0  0
M  END
>  <MODEL>
       1

$$$$
best_conformers_95.pdb
 OpenBabel02042510453D

 67 71  0  0  1  0  0  0  0  0999 V2000
    5.9790    1.0690   29.4400 C   0  0  0  0  0  0  0  0  0  0  0  0
    6.1830   -0.0950   28.5940 N   0  0  0  0  0  0  0  0  0  0  0  0
    5.6610   -0.0920   27.3350 C   0  0  0  0  0  0  0  0  0  0  0  0
    4.9830    0.8210   26.8890 O   0  0  0  0  0  0  0  0  0  0  0  0
    5.9720   -1.3550   26.5230 C   0  0  0  0  0  0  0  0  0  0  0  0
    6.9730   -1.1210   25.5010 N   0  0  0  0  0  0  0  0  0  0  0  0
    6.6180   -0.4970   24.2450 C   0  0  0  0  0  0  0  0  0  0  0  0
    7.4480   -1.0520   23.0610 C   0  0  2  0  0  0  0  0  0  0  0  0
    7.1680   -0.1430   21.8660 C   0  0  0  0  0  0  0  0  0  0  0  0
    7.4980    1.0160   21.7150 O   0  0  0  0  0  0  0  0  0  0  0  0
    6.4120   -0.8410   20.9600 N   0  0  0  0  0  0  0  0  0  0  0  0
    5.8230   -0.1840   19.8600 C   0  0  0  0  0  0  0  0  0  0  0  0
    6.2670   -0.4730   18.5990 C   0  0  0  0  0  0  0  0  0  0  0  0
    5.7980    0.1040   17.4660 N   0  0  0  0  0  0  0  0  0  0  0  0
    4.8300    0.9790   17.6090 C   0  0  0  0  0  0  0  0  0  0  0  0
    4.2660    1.3560   18.8610 C   0  0  0  0  0  0  0  0  0  0  0  0
    3.2100    2.3010   18.9510 C   0  0  0  0  0  0  0  0  0  0  0  0
    2.6620    2.6230   20.1610 C   0  0  0  0  0  0  0  0  0  0  0  0
    3.1410    2.0180   21.3470 C   0  0  0  0  0  0  0  0  0  0  0  0
    4.1670    1.1090   21.2920 C   0  0  0  0  0  0  0  0  0  0  0  0
    4.7650    0.7600   20.0410 C   0  0  0  0  0  0  0  0  0  0  0  0
    4.5200    0.6570   22.2190 H   0  0  0  0  0  0  0  0  0  0  0  0
    2.6910    2.2810   22.3020 H   0  0  0  0  0  0  0  0  0  0  0  0
    1.8530    3.3460   20.2230 H   0  0  0  0  0  0  0  0  0  0  0  0
    2.8480    2.7550   18.0330 H   0  0  0  0  0  0  0  0  0  0  0  0
    4.4290    1.4340   16.7020 H   0  0  0  0  0  0  0  0  0  0  0  0
    7.0710   -1.1980   18.4770 H   0  0  0  0  0  0  0  0  0  0  0  0
    6.0440   -2.1780   21.3650 C   0  0  0  0  0  0  0  0  0  0  0  0
    7.0020   -2.4600   22.5300 C   0  0  2  0  0  0  0  0  0  0  0  0
    6.4530   -3.4480   23.5650 C   0  0  0  0  0  0  0  0  0  0  0  0
    6.2990   -5.0720   22.8230 S   0  0  0  0  0  0  0  0  0  0  0  0
    5.3120   -4.9950   21.7520 O   0  0  0  0  0  0  0  0  0  0  0  0
    7.6510   -5.5330   22.5240 O   0  0  0  0  0  0  0  0  0  0  0  0
    5.6340   -6.0450   24.0430 N   0  0  0  0  0  0  0  0  0  0  0  0
    6.4460   -6.1570   25.2480 C   0  0  0  0  0  0  0  0  0  0  0  0
    6.4510   -5.2200   25.8070 H   0  0  0  0  0  0  0  0  0  0  0  0
    7.4750   -6.4730   25.0420 H   0  0  0  0  0  0  0  0  0  0  0  0
    5.9700   -6.9140   25.8830 H   0  0  0  0  0  0  0  0  0  0  0  0
    5.3270   -7.3960   23.5470 C   0  0  0  0  0  0  0  0  0  0  0  0
    4.6220   -7.3400   22.7210 H   0  0  0  0  0  0  0  0  0  0  0  0
    6.2300   -7.9280   23.2160 H   0  0  0  0  0  0  0  0  0  0  0  0
    4.8580   -7.9510   24.3680 H   0  0  0  0  0  0  0  0  0  0  0  0
    5.4750   -3.1530   23.9530 H   0  0  0  0  0  0  0  0  0  0  0  0
    7.1580   -3.5230   24.3960 H   0  0  0  0  0  0  0  0  0  0  0  0
    7.9070   -2.9150   22.1080 H   0  0  0  0  0  0  0  0  0  0  0  0
    4.9940   -2.2120   21.6810 H   0  0  0  0  0  0  0  0  0  0  0  0
    6.1640   -2.8730   20.5340 H   0  0  0  0  0  0  0  0  0  0  0  0
    8.9110   -1.0260   23.4450 C   0  0  0  0  0  0  0  0  0  0  0  0
    9.9220   -0.9820   22.4800 C   0  0  0  0  0  0  0  0  0  0  0  0
   11.2430   -1.0240   22.8880 C   0  0  0  0  0  0  0  0  0  0  0  0
   12.2060   -1.0030   21.9530 F   0  0  0  0  0  0  0  0  0  0  0  0
   11.6210   -1.1110   24.2250 C   0  0  0  0  0  0  0  0  0  0  0  0
   10.6180   -1.1710   25.1720 C   0  0  0  0  0  0  0  0  0  0  0  0
    9.2830   -1.1310   24.7840 C   0  0  0  0  0  0  0  0  0  0  0  0
    8.2690   -1.3270   25.8470 C   0  0  0  0  0  0  0  0  0  0  0  0
    8.5870   -1.7020   26.9650 O   0  0  0  0  0  0  0  0  0  0  0  0
   10.8310   -1.2580   26.2320 H   0  0  0  0  0  0  0  0  0  0  0  0
   12.6740   -1.1520   24.4850 H   0  0  0  0  0  0  0  0  0  0  0  0
    9.6840   -0.9300   21.4220 H   0  0  0  0  0  0  0  0  0  0  0  0
    5.5470   -0.6510   24.0730 H   0  0  0  0  0  0  0  0  0  0  0  0
    6.7840    0.5870   24.2970 H   0  0  0  0  0  0  0  0  0  0  0  0
    6.3630   -2.1420   27.1770 H   0  0  0  0  0  0  0  0  0  0  0  0
    5.0330   -1.6740   26.0530 H   0  0  0  0  0  0  0  0  0  0  0  0
    6.9270   -0.7470   28.8190 H   0  0  0  0  0  0  0  0  0  0  0  0
    6.4900    0.9290   30.3980 H   0  0  0  0  0  0  0  0  0  0  0  0
    4.9080    1.2070   29.6290 H   0  0  0  0  0  0  0  0  0  0  0  0
    6.3560    1.9770   28.9510 H   0  0  0  0  0  0  0  0  0  0  0  0
  1  2  1  0  0  0  0
  1 65  1  0  0  0  0
  1 66  1  0  0  0  0
  1 67  1  0  0  0  0
  2  3  1  0  0  0  0
  2 64  1  0  0  0  0
  3  4  2  0  0  0  0
  3  5  1  0  0  0  0
  5  6  1  0  0  0  0
  5 62  1  0  0  0  0
  5 63  1  0  0  0  0
  6  7  1  0  0  0  0
  6 55  1  0  0  0  0
  7  8  1  0  0  0  0
  7 60  1  0  0  0  0
  7 61  1  0  0  0  0
  8  9  1  6  0  0  0
  8 29  1  0  0  0  0
  8 48  1  0  0  0  0
  9 10  2  0  0  0  0
  9 11  1  0  0  0  0
 11 12  1  0  0  0  0
 11 28  1  0  0  0  0
 12 13  2  0  0  0  0
 12 21  1  0  0  0  0
 13 14  1  0  0  0  0
 13 27  1  0  0  0  0
 14 15  2  0  0  0  0
 15 16  1  0  0  0  0
 15 26  1  0  0  0  0
 16 17  2  0  0  0  0
 16 21  1  0  0  0  0
 17 18  1  0  0  0  0
 17 25  1  0  0  0  0
 18 19  2  0  0  0  0
 18 24  1  0  0  0  0
 19 20  1  0  0  0  0
 19 23  1  0  0  0  0
 20 21  2  0  0  0  0
 20 22  1  0  0  0  0
 28 29  1  0  0  0  0
 28 46  1  0  0  0  0
 28 47  1  0  0  0  0
 29 30  1  0  0  0  0
 29 45  1  6  0  0  0
 30 31  1  0  0  0  0
 30 43  1  0  0  0  0
 30 44  1  0  0  0  0
 31 32  2  0  0  0  0
 31 33  2  0  0  0  0
 31 34  1  0  0  0  0
 34 35  1  0  0  0  0
 34 39  1  0  0  0  0
 35 36  1  0  0  0  0
 35 37  1  0  0  0  0
 35 38  1  0  0  0  0
 39 40  1  0  0  0  0
 39 41  1  0  0  0  0
 39 42  1  0  0  0  0
 48 49  2  0  0  0  0
 48 54  1  0  0  0  0
 49 50  1  0  0  0  0
 49 59  1  0  0  0  0
 50 51  1  0  0  0  0
 50 52  2  0  0  0  0
 52 53  1  0  0  0  0
 52 58  1  0  0  0  0
 53 54  2  0  0  0  0
 53 57  1  0  0  0  0
 54 55  1  0  0  0  0
 55 56  2  0  0  0  0
M  END
>  <MODEL>
       2

$$$$
best_conformers_95.pdb
 OpenBabel02042510453D

 67 71  0  0  1  0  0  0  0  0999 V2000
    4.9370   -8.1940   25.3960 C   0  0  0  0  0  0  0  0  0  0  0  0
    4.4730   -6.9790   24.7730 N   0  0  0  0  0  0  0  0  0  0  0  0
    5.1440   -6.5150   23.6940 C   0  0  0  0  0  0  0  0  0  0  0  0
    6.1570   -7.0460   23.2620 O   0  0  0  0  0  0  0  0  0  0  0  0
    4.5640   -5.2520   23.0790 C   0  0  0  0  0  0  0  0  0  0  0  0
    5.1640   -4.0710   23.6460 N   0  0  0  0  0  0  0  0  0  0  0  0
    6.4810   -3.6660   23.1910 C   0  0  0  0  0  0  0  0  0  0  0  0
    6.5550   -2.1490   22.9460 C   0  0  2  0  0  0  0  0  0  0  0  0
    5.7060   -1.7700   21.7260 C   0  0  0  0  0  0  0  0  0  0  0  0
    4.5930   -2.1710   21.4580 O   0  0  0  0  0  0  0  0  0  0  0  0
    6.4080   -0.8730   20.9600 N   0  0  0  0  0  0  0  0  0  0  0  0
    5.8160   -0.2040   19.8640 C   0  0  0  0  0  0  0  0  0  0  0  0
    6.2800   -0.4550   18.5980 C   0  0  0  0  0  0  0  0  0  0  0  0
    5.7980    0.1190   17.4690 N   0  0  0  0  0  0  0  0  0  0  0  0
    4.8190    0.9820   17.6150 C   0  0  0  0  0  0  0  0  0  0  0  0
    4.2530    1.3450   18.8710 C   0  0  0  0  0  0  0  0  0  0  0  0
    3.2080    2.3010   18.9590 C   0  0  0  0  0  0  0  0  0  0  0  0
    2.6920    2.6610   20.1720 C   0  0  0  0  0  0  0  0  0  0  0  0
    3.2000    2.0800   21.3570 C   0  0  0  0  0  0  0  0  0  0  0  0
    4.2080    1.1480   21.3060 C   0  0  0  0  0  0  0  0  0  0  0  0
    4.7570    0.7460   20.0490 C   0  0  0  0  0  0  0  0  0  0  0  0
    4.5940    0.7250   22.2350 H   0  0  0  0  0  0  0  0  0  0  0  0
    2.7870    2.3790   22.3170 H   0  0  0  0  0  0  0  0  0  0  0  0
    1.8900    3.3930   20.2380 H   0  0  0  0  0  0  0  0  0  0  0  0
    2.8390    2.7530   18.0420 H   0  0  0  0  0  0  0  0  0  0  0  0
    4.4270    1.4490   16.7110 H   0  0  0  0  0  0  0  0  0  0  0  0
    7.0730   -1.1910   18.4540 H   0  0  0  0  0  0  0  0  0  0  0  0
    7.7700   -0.6490   21.3830 C   0  0  0  0  0  0  0  0  0  0  0  0
    7.9840   -1.6360   22.5630 C   0  0  2  0  0  0  0  0  0  0  0  0
    9.0500   -2.7100   22.2010 C   0  0  0  0  0  0  0  0  0  0  0  0
   10.7050   -1.9780   22.0140 S   0  0  0  0  0  0  0  0  0  0  0  0
   11.3930   -2.5880   20.8900 O   0  0  0  0  0  0  0  0  0  0  0  0
   10.5300   -0.5310   22.0580 O   0  0  0  0  0  0  0  0  0  0  0  0
   11.5780   -2.4720   23.3760 N   0  0  0  0  0  0  0  0  0  0  0  0
   11.0710   -1.9530   24.6390 C   0  0  0  0  0  0  0  0  0  0  0  0
   10.0730   -2.3480   24.8390 H   0  0  0  0  0  0  0  0  0  0  0  0
   11.0310   -0.8570   24.6440 H   0  0  0  0  0  0  0  0  0  0  0  0
   11.7350   -2.3080   25.4360 H   0  0  0  0  0  0  0  0  0  0  0  0
   13.0090   -2.1810   23.2110 C   0  0  0  0  0  0  0  0  0  0  0  0
   13.2140   -1.1040   23.1180 H   0  0  0  0  0  0  0  0  0  0  0  0
   13.3720   -2.6850   22.3170 H   0  0  0  0  0  0  0  0  0  0  0  0
   13.5430   -2.5760   24.0810 H   0  0  0  0  0  0  0  0  0  0  0  0
    9.1170   -3.5180   22.9430 H   0  0  0  0  0  0  0  0  0  0  0  0
    8.8320   -3.1730   21.2330 H   0  0  0  0  0  0  0  0  0  0  0  0
    8.3930   -1.1010   23.4260 H   0  0  0  0  0  0  0  0  0  0  0  0
    7.9060    0.3950   21.6920 H   0  0  0  0  0  0  0  0  0  0  0  0
    8.4660   -0.8290   20.5600 H   0  0  0  0  0  0  0  0  0  0  0  0
    5.9730   -1.4600   24.1870 C   0  0  0  0  0  0  0  0  0  0  0  0
    6.2930   -0.1280   24.4790 C   0  0  0  0  0  0  0  0  0  0  0  0
    5.7410    0.4740   25.5950 C   0  0  0  0  0  0  0  0  0  0  0  0
    6.0730    1.7500   25.8710 F   0  0  0  0  0  0  0  0  0  0  0  0
    4.8560   -0.1820   26.4440 C   0  0  0  0  0  0  0  0  0  0  0  0
    4.5040   -1.4830   26.1390 C   0  0  0  0  0  0  0  0  0  0  0  0
    5.0450   -2.1080   25.0190 C   0  0  0  0  0  0  0  0  0  0  0  0
    4.5540   -3.4820   24.7100 C   0  0  0  0  0  0  0  0  0  0  0  0
    3.6460   -4.0240   25.3410 O   0  0  0  0  0  0  0  0  0  0  0  0
    3.7990   -2.0550   26.7370 H   0  0  0  0  0  0  0  0  0  0  0  0
    4.4520    0.3480   27.2990 H   0  0  0  0  0  0  0  0  0  0  0  0
    6.9710    0.4580   23.8620 H   0  0  0  0  0  0  0  0  0  0  0  0
    6.6880   -4.2210   22.2720 H   0  0  0  0  0  0  0  0  0  0  0  0
    7.2220   -3.9360   23.9560 H   0  0  0  0  0  0  0  0  0  0  0  0
    4.7610   -5.2630   22.0030 H   0  0  0  0  0  0  0  0  0  0  0  0
    3.4930   -5.1900   23.2730 H   0  0  0  0  0  0  0  0  0  0  0  0
    3.6830   -6.4700   25.1350 H   0  0  0  0  0  0  0  0  0  0  0  0
    4.9880   -8.9850   24.6500 H   0  0  0  0  0  0  0  0  0  0  0  0
    5.9480   -8.0550   25.7790 H   0  0  0  0  0  0  0  0  0  0  0  0
    4.2720   -8.4950   26.2080 H   0  0  0  0  0  0  0  0  0  0  0  0
  1  2  1  0  0  0  0
  1 65  1  0  0  0  0
  1 66  1  0  0  0  0
  1 67  1  0  0  0  0
  2  3  1  0  0  0  0
  2 64  1  0  0  0  0
  3  4  2  0  0  0  0
  3  5  1  0  0  0  0
  5  6  1  0  0  0  0
  5 62  1  0  0  0  0
  5 63  1  0  0  0  0
  6  7  1  0  0  0  0
  6 55  1  0  0  0  0
  7  8  1  0  0  0  0
  7 60  1  0  0  0  0
  7 61  1  0  0  0  0
  8  9  1  6  0  0  0
  8 29  1  0  0  0  0
  8 48  1  0  0  0  0
  9 10  2  0  0  0  0
  9 11  1  0  0  0  0
 11 12  1  0  0  0  0
 11 28  1  0  0  0  0
 12 13  2  0  0  0  0
 12 21  1  0  0  0  0
 13 14  1  0  0  0  0
 13 27  1  0  0  0  0
 14 15  2  0  0  0  0
 15 16  1  0  0  0  0
 15 26  1  0  0  0  0
 16 17  2  0  0  0  0
 16 21  1  0  0  0  0
 17 18  1  0  0  0  0
 17 25  1  0  0  0  0
 18 19  2  0  0  0  0
 18 24  1  0  0  0  0
 19 20  1  0  0  0  0
 19 23  1  0  0  0  0
 20 21  2  0  0  0  0
 20 22  1  0  0  0  0
 28 29  1  0  0  0  0
 28 46  1  0  0  0  0
 28 47  1  0  0  0  0
 29 30  1  0  0  0  0
 29 45  1  1  0  0  0
 30 31  1  0  0  0  0
 30 43  1  0  0  0  0
 30 44  1  0  0  0  0
 31 32  2  0  0  0  0
 31 33  2  0  0  0  0
 31 34  1  0  0  0  0
 34 35  1  0  0  0  0
 34 39  1  0  0  0  0
 35 36  1  0  0  0  0
 35 37  1  0  0  0  0
 35 38  1  0  0  0  0
 39 40  1  0  0  0  0
 39 41  1  0  0  0  0
 39 42  1  0  0  0  0
 48 49  2  0  0  0  0
 48 54  1  0  0  0  0
 49 50  1  0  0  0  0
 49 59  1  0  0  0  0
 50 51  1  0  0  0  0
 50 52  2  0  0  0  0
 52 53  1  0  0  0  0
 52 58  1  0  0  0  0
 53 54  2  0  0  0  0
 53 57  1  0  0  0  0
 54 55  1  0  0  0  0
 55 56  2  0  0  0  0
M  END
>  <MODEL>
       3

$$$$
best_conformers_95.pdb
 OpenBabel02042510453D

 67 71  0  0  1  0  0  0  0  0999 V2000
    4.8530   -8.2100   25.3820 C   0  0  0  0  0  0  0  0  0  0  0  0
    4.4070   -6.9940   24.7480 N   0  0  0  0  0  0  0  0  0  0  0  0
    5.1080   -6.5220   23.6920 C   0  0  0  0  0  0  0  0  0  0  0  0
    6.1330   -7.0490   23.2840 O   0  0  0  0  0  0  0  0  0  0  0  0
    4.5440   -5.2560   23.0680 C   0  0  0  0  0  0  0  0  0  0  0  0
    5.1480   -4.0780   23.6370 N   0  0  0  0  0  0  0  0  0  0  0  0
    6.4670   -3.6760   23.1830 C   0  0  0  0  0  0  0  0  0  0  0  0
    6.5470   -2.1600   22.9420 C   0  0  2  0  0  0  0  0  0  0  0  0
    5.7010   -1.7760   21.7210 C   0  0  0  0  0  0  0  0  0  0  0  0
    4.5870   -2.1740   21.4510 O   0  0  0  0  0  0  0  0  0  0  0  0
    6.4050   -0.8770   20.9590 N   0  0  0  0  0  0  0  0  0  0  0  0
    5.8150   -0.2060   19.8640 C   0  0  0  0  0  0  0  0  0  0  0  0
    6.2810   -0.4550   18.5980 C   0  0  0  0  0  0  0  0  0  0  0  0
    5.7990    0.1190   17.4700 N   0  0  0  0  0  0  0  0  0  0  0  0
    4.8190    0.9820   17.6150 C   0  0  0  0  0  0  0  0  0  0  0  0
    4.2540    1.3440   18.8710 C   0  0  0  0  0  0  0  0  0  0  0  0
    3.2090    2.3010   18.9590 C   0  0  0  0  0  0  0  0  0  0  0  0
    2.6930    2.6610   20.1720 C   0  0  0  0  0  0  0  0  0  0  0  0
    3.2000    2.0800   21.3570 C   0  0  0  0  0  0  0  0  0  0  0  0
    4.2080    1.1480   21.3060 C   0  0  0  0  0  0  0  0  0  0  0  0
    4.7570    0.7450   20.0490 C   0  0  0  0  0  0  0  0  0  0  0  0
    4.5930    0.7240   22.2350 H   0  0  0  0  0  0  0  0  0  0  0  0
    2.7870    2.3800   22.3170 H   0  0  0  0  0  0  0  0  0  0  0  0
    1.8910    3.3930   20.2380 H   0  0  0  0  0  0  0  0  0  0  0  0
    2.8410    2.7520   18.0420 H   0  0  0  0  0  0  0  0  0  0  0  0
    4.4270    1.4490   16.7110 H   0  0  0  0  0  0  0  0  0  0  0  0
    7.0730   -1.1910   18.4550 H   0  0  0  0  0  0  0  0  0  0  0  0
    7.7670   -0.6580   21.3840 C   0  0  0  0  0  0  0  0  0  0  0  0
    7.9780   -1.6500   22.5600 C   0  0  2  0  0  0  0  0  0  0  0  0
    9.0400   -2.7250   22.1950 C   0  0  0  0  0  0  0  0  0  0  0  0
   10.6950   -1.9920   22.0130 S   0  0  0  0  0  0  0  0  0  0  0  0
   11.3850   -2.5910   20.8840 O   0  0  0  0  0  0  0  0  0  0  0  0
   10.5210   -0.5460   22.0720 O   0  0  0  0  0  0  0  0  0  0  0  0
   11.5660   -2.5020   23.3700 N   0  0  0  0  0  0  0  0  0  0  0  0
   12.9990   -2.2170   23.2090 C   0  0  0  0  0  0  0  0  0  0  0  0
   13.2090   -1.1410   23.1230 H   0  0  0  0  0  0  0  0  0  0  0  0
   13.3610   -2.7180   22.3130 H   0  0  0  0  0  0  0  0  0  0  0  0
   13.5300   -2.6200   24.0770 H   0  0  0  0  0  0  0  0  0  0  0  0
   11.0610   -1.9910   24.6370 C   0  0  0  0  0  0  0  0  0  0  0  0
   11.0230   -0.8950   24.6490 H   0  0  0  0  0  0  0  0  0  0  0  0
   11.7230   -2.3520   25.4320 H   0  0  0  0  0  0  0  0  0  0  0  0
   10.0620   -2.3850   24.8350 H   0  0  0  0  0  0  0  0  0  0  0  0
    8.8210   -3.1850   21.2250 H   0  0  0  0  0  0  0  0  0  0  0  0
    9.1050   -3.5360   22.9340 H   0  0  0  0  0  0  0  0  0  0  0  0
    8.3870   -1.1200   23.4250 H   0  0  0  0  0  0  0  0  0  0  0  0
    8.4630   -0.8390   20.5610 H   0  0  0  0  0  0  0  0  0  0  0  0
    7.9070    0.3840   21.6960 H   0  0  0  0  0  0  0  0  0  0  0  0
    5.9660   -1.4710   24.1830 C   0  0  0  0  0  0  0  0  0  0  0  0
    6.2920   -0.1400   24.4790 C   0  0  0  0  0  0  0  0  0  0  0  0
    5.7400    0.4610   25.5950 C   0  0  0  0  0  0  0  0  0  0  0  0
    6.0770    1.7350   25.8740 F   0  0  0  0  0  0  0  0  0  0  0  0
    4.8510   -0.1930   26.4410 C   0  0  0  0  0  0  0  0  0  0  0  0
    4.4930   -1.4920   26.1330 C   0  0  0  0  0  0  0  0  0  0  0  0
    5.0340   -2.1170   25.0120 C   0  0  0  0  0  0  0  0  0  0  0  0
    4.5380   -3.4870   24.7010 C   0  0  0  0  0  0  0  0  0  0  0  0
    3.6260   -4.0260   25.3280 O   0  0  0  0  0  0  0  0  0  0  0  0
    3.7850   -2.0620   26.7280 H   0  0  0  0  0  0  0  0  0  0  0  0
    4.4470    0.3370   27.2960 H   0  0  0  0  0  0  0  0  0  0  0  0
    6.9740    0.4430   23.8650 H   0  0  0  0  0  0  0  0  0  0  0  0
    6.6720   -4.2300   22.2640 H   0  0  0  0  0  0  0  0  0  0  0  0
    7.2060   -3.9510   23.9490 H   0  0  0  0  0  0  0  0  0  0  0  0
    3.4720   -5.1850   23.2530 H   0  0  0  0  0  0  0  0  0  0  0  0
    4.7500   -5.2700   21.9940 H   0  0  0  0  0  0  0  0  0  0  0  0
    3.6170   -6.4780   25.1010 H   0  0  0  0  0  0  0  0  0  0  0  0
    4.9120   -9.0060   24.6410 H   0  0  0  0  0  0  0  0  0  0  0  0
    5.8590   -8.0750   25.7830 H   0  0  0  0  0  0  0  0  0  0  0  0
    4.1720   -8.5030   26.1830 H   0  0  0  0  0  0  0  0  0  0  0  0
  1  2  1  0  0  0  0
  1 65  1  0  0  0  0
  1 66  1  0  0  0  0
  1 67  1  0  0  0  0
  2  3  1  0  0  0  0
  2 64  1  0  0  0  0
  3  4  2  0  0  0  0
  3  5  1  0  0  0  0
  5  6  1  0  0  0  0
  5 62  1  0  0  0  0
  5 63  1  0  0  0  0
  6  7  1  0  0  0  0
  6 55  1  0  0  0  0
  7  8  1  0  0  0  0
  7 60  1  0  0  0  0
  7 61  1  0  0  0  0
  8  9  1  6  0  0  0
  8 29  1  0  0  0  0
  8 48  1  0  0  0  0
  9 10  2  0  0  0  0
  9 11  1  0  0  0  0
 11 12  1  0  0  0  0
 11 28  1  0  0  0  0
 12 13  2  0  0  0  0
 12 21  1  0  0  0  0
 13 14  1  0  0  0  0
 13 27  1  0  0  0  0
 14 15  2  0  0  0  0
 15 16  1  0  0  0  0
 15 26  1  0  0  0  0
 16 17  2  0  0  0  0
 16 21  1  0  0  0  0
 17 18  1  0  0  0  0
 17 25  1  0  0  0  0
 18 19  2  0  0  0  0
 18 24  1  0  0  0  0
 19 20  1  0  0  0  0
 19 23  1  0  0  0  0
 20 21  2  0  0  0  0
 20 22  1  0  0  0  0
 28 29  1  0  0  0  0
 28 46  1  0  0  0  0
 28 47  1  0  0  0  0
 29 30  1  0  0  0  0
 29 45  1  1  0  0  0
 30 31  1  0  0  0  0
 30 43  1  0  0  0  0
 30 44  1  0  0  0  0
 31 32  2  0  0  0  0
 31 33  2  0  0  0  0
 31 34  1  0  0  0  0
 34 35  1  0  0  0  0
 34 39  1  0  0  0  0
 35 36  1  0  0  0  0
 35 37  1  0  0  0  0
 35 38  1  0  0  0  0
 39 40  1  0  0  0  0
 39 41  1  0  0  0  0
 39 42  1  0  0  0  0
 48 49  2  0  0  0  0
 48 54  1  0  0  0  0
 49 50  1  0  0  0  0
 49 59  1  0  0  0  0
 50 51  1  0  0  0  0
 50 52  2  0  0  0  0
 52 53  1  0  0  0  0
 52 58  1  0  0  0  0
 53 54  2  0  0  0  0
 53 57  1  0  0  0  0
 54 55  1  0  0  0  0
 55 56  2  0  0  0  0
M  END
>  <MODEL>
       4

$$$$
best_conformers_95.pdb
 OpenBabel02042510453D

 67 71  0  0  1  0  0  0  0  0999 V2000
    4.8800   -8.1960   25.2800 C   0  0  0  0  0  0  0  0  0  0  0  0
    4.4770   -6.9340   24.7020 N   0  0  0  0  0  0  0  0  0  0  0  0
    5.1250   -6.4920   23.5990 C   0  0  0  0  0  0  0  0  0  0  0  0
    6.1230   -7.0330   23.1490 O   0  0  0  0  0  0  0  0  0  0  0  0
    4.5350   -5.2250   22.9900 C   0  0  0  0  0  0  0  0  0  0  0  0
    5.1730   -4.0740   23.5870 N   0  0  0  0  0  0  0  0  0  0  0  0
    6.5070   -3.6760   23.1540 C   0  0  0  0  0  0  0  0  0  0  0  0
    6.5360   -2.1550   22.9210 C   0  0  2  0  0  0  0  0  0  0  0  0
    5.7050   -1.8400   21.6620 C   0  0  0  0  0  0  0  0  0  0  0  0
    4.6530   -2.3360   21.3160 O   0  0  0  0  0  0  0  0  0  0  0  0
    6.3690   -0.8650   20.9590 N   0  0  0  0  0  0  0  0  0  0  0  0
    5.8010   -0.2140   19.8530 C   0  0  0  0  0  0  0  0  0  0  0  0
    6.3010   -0.4490   18.5990 C   0  0  0  0  0  0  0  0  0  0  0  0
    5.8280    0.1230   17.4670 N   0  0  0  0  0  0  0  0  0  0  0  0
    4.8360    0.9710   17.6110 C   0  0  0  0  0  0  0  0  0  0  0  0
    4.2580    1.3280   18.8630 C   0  0  0  0  0  0  0  0  0  0  0  0
    3.2150    2.2830   18.9460 C   0  0  0  0  0  0  0  0  0  0  0  0
    2.7050    2.6410   20.1610 C   0  0  0  0  0  0  0  0  0  0  0  0
    3.2110    2.0660   21.3520 C   0  0  0  0  0  0  0  0  0  0  0  0
    4.2150    1.1290   21.3060 C   0  0  0  0  0  0  0  0  0  0  0  0
    4.7530    0.7330   20.0410 C   0  0  0  0  0  0  0  0  0  0  0  0
    4.6050    0.7000   22.2320 H   0  0  0  0  0  0  0  0  0  0  0  0
    2.8000    2.3800   22.3080 H   0  0  0  0  0  0  0  0  0  0  0  0
    1.9170    3.3870   20.2220 H   0  0  0  0  0  0  0  0  0  0  0  0
    2.8570    2.7310   18.0230 H   0  0  0  0  0  0  0  0  0  0  0  0
    4.4400    1.4330   16.7080 H   0  0  0  0  0  0  0  0  0  0  0  0
    7.1230   -1.1550   18.4740 H   0  0  0  0  0  0  0  0  0  0  0  0
    7.7390   -0.6540   21.3410 C   0  0  0  0  0  0  0  0  0  0  0  0
    7.9420   -1.5610   22.5740 C   0  0  2  0  0  0  0  0  0  0  0  0
    9.0760   -2.5640   22.3240 C   0  0  0  0  0  0  0  0  0  0  0  0
   10.6780   -1.7510   22.1610 S   0  0  0  0  0  0  0  0  0  0  0  0
   10.5680   -0.8200   21.0460 O   0  0  0  0  0  0  0  0  0  0  0  0
   11.7220   -2.7590   22.1840 O   0  0  0  0  0  0  0  0  0  0  0  0
   10.9740   -0.8170   23.5570 N   0  0  0  0  0  0  0  0  0  0  0  0
   11.0430   -1.6210   24.7900 C   0  0  0  0  0  0  0  0  0  0  0  0
   10.0710   -2.0700   25.0270 H   0  0  0  0  0  0  0  0  0  0  0  0
   11.8030   -2.4120   24.7320 H   0  0  0  0  0  0  0  0  0  0  0  0
   11.3060   -0.9370   25.6020 H   0  0  0  0  0  0  0  0  0  0  0  0
   12.2720   -0.1400   23.3220 C   0  0  0  0  0  0  0  0  0  0  0  0
   12.4910    0.5120   24.1710 H   0  0  0  0  0  0  0  0  0  0  0  0
   13.0870   -0.8700   23.2120 H   0  0  0  0  0  0  0  0  0  0  0  0
   12.2060    0.4610   22.4110 H   0  0  0  0  0  0  0  0  0  0  0  0
    8.9370   -3.1060   21.3800 H   0  0  0  0  0  0  0  0  0  0  0  0
    9.1900   -3.2990   23.1220 H   0  0  0  0  0  0  0  0  0  0  0  0
    8.2840   -0.9760   23.4350 H   0  0  0  0  0  0  0  0  0  0  0  0
    7.9380    0.3990   21.5740 H   0  0  0  0  0  0  0  0  0  0  0  0
    8.4130   -0.9230   20.5240 H   0  0  0  0  0  0  0  0  0  0  0  0
    5.9290   -1.4730   24.1540 C   0  0  0  0  0  0  0  0  0  0  0  0
    6.2220   -0.1340   24.4600 C   0  0  0  0  0  0  0  0  0  0  0  0
    5.7050    0.4440   25.6060 C   0  0  0  0  0  0  0  0  0  0  0  0
    6.0630    1.7030   25.9180 F   0  0  0  0  0  0  0  0  0  0  0  0
    4.8550   -0.2370   26.4690 C   0  0  0  0  0  0  0  0  0  0  0  0
    4.5190   -1.5350   26.1440 C   0  0  0  0  0  0  0  0  0  0  0  0
    5.0380   -2.1440   25.0020 C   0  0  0  0  0  0  0  0  0  0  0  0
    4.5790   -3.5250   24.6810 C   0  0  0  0  0  0  0  0  0  0  0  0
    3.7090   -4.1150   25.3180 O   0  0  0  0  0  0  0  0  0  0  0  0
    3.8450   -2.1110   26.7690 H   0  0  0  0  0  0  0  0  0  0  0  0
    4.4770    0.2520   27.3620 H   0  0  0  0  0  0  0  0  0  0  0  0
    6.8780    0.4680   23.8380 H   0  0  0  0  0  0  0  0  0  0  0  0
    7.2600   -3.9590   23.9070 H   0  0  0  0  0  0  0  0  0  0  0  0
    6.7370   -4.2130   22.2300 H   0  0  0  0  0  0  0  0  0  0  0  0
    3.4590   -5.1670   23.1750 H   0  0  0  0  0  0  0  0  0  0  0  0
    4.6920   -5.1950   21.9080 H   0  0  0  0  0  0  0  0  0  0  0  0
    3.8750   -6.2900   25.1950 H   0  0  0  0  0  0  0  0  0  0  0  0
    4.1830   -8.4700   26.0700 H   0  0  0  0  0  0  0  0  0  0  0  0
    4.8560   -8.9590   24.4970 H   0  0  0  0  0  0  0  0  0  0  0  0
    5.8950   -8.1550   25.6920 H   0  0  0  0  0  0  0  0  0  0  0  0
  1  2  1  0  0  0  0
  1 65  1  0  0  0  0
  1 66  1  0  0  0  0
  1 67  1  0  0  0  0
  2  3  1  0  0  0  0
  2 64  1  0  0  0  0
  3  4  2  0  0  0  0
  3  5  1  0  0  0  0
  5  6  1  0  0  0  0
  5 62  1  0  0  0  0
  5 63  1  0  0  0  0
  6  7  1  0  0  0  0
  6 55  1  0  0  0  0
  7  8  1  0  0  0  0
  7 60  1  0  0  0  0
  7 61  1  0  0  0  0
  8  9  1  6  0  0  0
  8 29  1  0  0  0  0
  8 48  1  0  0  0  0
  9 10  2  0  0  0  0
  9 11  1  0  0  0  0
 11 12  1  0  0  0  0
 11 28  1  0  0  0  0
 12 13  2  0  0  0  0
 12 21  1  0  0  0  0
 13 14  1  0  0  0  0
 13 27  1  0  0  0  0
 14 15  2  0  0  0  0
 15 16  1  0  0  0  0
 15 26  1  0  0  0  0
 16 17  2  0  0  0  0
 16 21  1  0  0  0  0
 17 18  1  0  0  0  0
 17 25  1  0  0  0  0
 18 19  2  0  0  0  0
 18 24  1  0  0  0  0
 19 20  1  0  0  0  0
 19 23  1  0  0  0  0
 20 21  2  0  0  0  0
 20 22  1  0  0  0  0
 28 29  1  0  0  0  0
 28 46  1  0  0  0  0
 28 47  1  0  0  0  0
 29 30  1  0  0  0  0
 29 45  1  1  0  0  0
 30 31  1  0  0  0  0
 30 43  1  0  0  0  0
 30 44  1  0  0  0  0
 31 32  2  0  0  0  0
 31 33  2  0  0  0  0
 31 34  1  0  0  0  0
 34 35  1  0  0  0  0
 34 39  1  0  0  0  0
 35 36  1  0  0  0  0
 35 37  1  0  0  0  0
 35 38  1  0  0  0  0
 39 40  1  0  0  0  0
 39 41  1  0  0  0  0
 39 42  1  0  0  0  0
 48 49  2  0  0  0  0
 48 54  1  0  0  0  0
 49 50  1  0  0  0  0
 49 59  1  0  0  0  0
 50 51  1  0  0  0  0
 50 52  2  0  0  0  0
 52 53  1  0  0  0  0
 52 58  1  0  0  0  0
 53 54  2  0  0  0  0
 53 57  1  0  0  0  0
 54 55  1  0  0  0  0
 55 56  2  0  0  0  0
M  END
>  <MODEL>
       5

$$$$
best_conformers_95.pdb
 OpenBabel02042510453D

 67 71  0  0  1  0  0  0  0  0999 V2000
    4.8250   -8.2270   25.3450 C   0  0  0  0  0  0  0  0  0  0  0  0
    4.3840   -6.9980   24.7320 N   0  0  0  0  0  0  0  0  0  0  0  0
    5.0650   -6.5250   23.6640 C   0  0  0  0  0  0  0  0  0  0  0  0
    6.0740   -7.0600   23.2270 O   0  0  0  0  0  0  0  0  0  0  0  0
    4.5020   -5.2470   23.0630 C   0  0  0  0  0  0  0  0  0  0  0  0
    5.1230   -4.0790   23.6350 N   0  0  0  0  0  0  0  0  0  0  0  0
    6.4430   -3.6890   23.1750 C   0  0  0  0  0  0  0  0  0  0  0  0
    6.5380   -2.1730   22.9370 C   0  0  2  0  0  0  0  0  0  0  0  0
    5.6910   -1.7770   21.7210 C   0  0  0  0  0  0  0  0  0  0  0  0
    4.5740   -2.1660   21.4530 O   0  0  0  0  0  0  0  0  0  0  0  0
    6.4000   -0.8820   20.9590 N   0  0  0  0  0  0  0  0  0  0  0  0
    5.8140   -0.2070   19.8640 C   0  0  0  0  0  0  0  0  0  0  0  0
    6.2800   -0.4560   18.5980 C   0  0  0  0  0  0  0  0  0  0  0  0
    5.7990    0.1190   17.4690 N   0  0  0  0  0  0  0  0  0  0  0  0
    4.8190    0.9820   17.6150 C   0  0  0  0  0  0  0  0  0  0  0  0
    4.2530    1.3430   18.8710 C   0  0  0  0  0  0  0  0  0  0  0  0
    3.2090    2.3000   18.9580 C   0  0  0  0  0  0  0  0  0  0  0  0
    2.6920    2.6600   20.1710 C   0  0  0  0  0  0  0  0  0  0  0  0
    3.2000    2.0800   21.3570 C   0  0  0  0  0  0  0  0  0  0  0  0
    4.2070    1.1480   21.3050 C   0  0  0  0  0  0  0  0  0  0  0  0
    4.7570    0.7440   20.0480 C   0  0  0  0  0  0  0  0  0  0  0  0
    4.5940    0.7250   22.2340 H   0  0  0  0  0  0  0  0  0  0  0  0
    2.7870    2.3800   22.3160 H   0  0  0  0  0  0  0  0  0  0  0  0
    1.8900    3.3920   20.2370 H   0  0  0  0  0  0  0  0  0  0  0  0
    2.8400    2.7510   18.0420 H   0  0  0  0  0  0  0  0  0  0  0  0
    4.4280    1.4500   16.7110 H   0  0  0  0  0  0  0  0  0  0  0  0
    7.0720   -1.1920   18.4540 H   0  0  0  0  0  0  0  0  0  0  0  0
    7.7660   -0.6800   21.3770 C   0  0  0  0  0  0  0  0  0  0  0  0
    7.9720   -1.6760   22.5500 C   0  0  2  0  0  0  0  0  0  0  0  0
    9.0250   -2.7570   22.1770 C   0  0  0  0  0  0  0  0  0  0  0  0
   10.6830   -2.0270   21.9980 S   0  0  0  0  0  0  0  0  0  0  0  0
   10.5120   -0.5820   22.0840 O   0  0  0  0  0  0  0  0  0  0  0  0
   11.3720   -2.6070   20.8590 O   0  0  0  0  0  0  0  0  0  0  0  0
   11.5540   -2.5650   23.3420 N   0  0  0  0  0  0  0  0  0  0  0  0
   12.9900   -2.3000   23.1770 C   0  0  0  0  0  0  0  0  0  0  0  0
   13.3440   -2.8010   22.2780 H   0  0  0  0  0  0  0  0  0  0  0  0
   13.5170   -2.7140   24.0430 H   0  0  0  0  0  0  0  0  0  0  0  0
   13.2140   -1.2270   23.0950 H   0  0  0  0  0  0  0  0  0  0  0  0
   11.0610   -2.0580   24.6140 C   0  0  0  0  0  0  0  0  0  0  0  0
   11.0360   -0.9620   24.6310 H   0  0  0  0  0  0  0  0  0  0  0  0
   11.7230   -2.4310   25.4030 H   0  0  0  0  0  0  0  0  0  0  0  0
   10.0580   -2.4400   24.8140 H   0  0  0  0  0  0  0  0  0  0  0  0
    9.0890   -3.5680   22.9150 H   0  0  0  0  0  0  0  0  0  0  0  0
    8.7990   -3.2150   21.2090 H   0  0  0  0  0  0  0  0  0  0  0  0
    8.3890   -1.1520   23.4150 H   0  0  0  0  0  0  0  0  0  0  0  0
    8.4570   -0.8670   20.5510 H   0  0  0  0  0  0  0  0  0  0  0  0
    7.9210    0.3600   21.6910 H   0  0  0  0  0  0  0  0  0  0  0  0
    5.9700   -1.4810   24.1820 C   0  0  0  0  0  0  0  0  0  0  0  0
    6.3110   -0.1540   24.4800 C   0  0  0  0  0  0  0  0  0  0  0  0
    5.7700    0.4510   25.5990 C   0  0  0  0  0  0  0  0  0  0  0  0
    6.1220    1.7210   25.8790 F   0  0  0  0  0  0  0  0  0  0  0  0
    4.8780   -0.1950   26.4480 C   0  0  0  0  0  0  0  0  0  0  0  0
    4.5050   -1.4900   26.1390 C   0  0  0  0  0  0  0  0  0  0  0  0
    5.0350   -2.1180   25.0140 C   0  0  0  0  0  0  0  0  0  0  0  0
    4.5240   -3.4840   24.7030 C   0  0  0  0  0  0  0  0  0  0  0  0
    3.6110   -4.0160   25.3350 O   0  0  0  0  0  0  0  0  0  0  0  0
    3.7940   -2.0550   26.7360 H   0  0  0  0  0  0  0  0  0  0  0  0
    4.4840    0.3370   27.3050 H   0  0  0  0  0  0  0  0  0  0  0  0
    6.9980    0.4230   23.8650 H   0  0  0  0  0  0  0  0  0  0  0  0
    6.6370   -4.2420   22.2530 H   0  0  0  0  0  0  0  0  0  0  0  0
    7.1830   -3.9730   23.9360 H   0  0  0  0  0  0  0  0  0  0  0  0
    4.6930   -5.2510   21.9850 H   0  0  0  0  0  0  0  0  0  0  0  0
    3.4330   -5.1700   23.2640 H   0  0  0  0  0  0  0  0  0  0  0  0
    3.6130   -6.4710   25.1110 H   0  0  0  0  0  0  0  0  0  0  0  0
    4.1670   -8.5070   26.1680 H   0  0  0  0  0  0  0  0  0  0  0  0
    4.8400   -9.0230   24.6010 H   0  0  0  0  0  0  0  0  0  0  0  0
    5.8470   -8.1150   25.7110 H   0  0  0  0  0  0  0  0  0  0  0  0
  1  2  1  0  0  0  0
  1 65  1  0  0  0  0
  1 66  1  0  0  0  0
  1 67  1  0  0  0  0
  2  3  1  0  0  0  0
  2 64  1  0  0  0  0
  3  4  2  0  0  0  0
  3  5  1  0  0  0  0
  5  6  1  0  0  0  0
  5 62  1  0  0  0  0
  5 63  1  0  0  0  0
  6  7  1  0  0  0  0
  6 55  1  0  0  0  0
  7  8  1  0  0  0  0
  7 60  1  0  0  0  0
  7 61  1  0  0  0  0
  8  9  1  6  0  0  0
  8 29  1  0  0  0  0
  8 48  1  0  0  0  0
  9 10  2  0  0  0  0
  9 11  1  0  0  0  0
 11 12  1  0  0  0  0
 11 28  1  0  0  0  0
 12 13  2  0  0  0  0
 12 21  1  0  0  0  0
 13 14  1  0  0  0  0
 13 27  1  0  0  0  0
 14 15  2  0  0  0  0
 15 16  1  0  0  0  0
 15 26  1  0  0  0  0
 16 17  2  0  0  0  0
 16 21  1  0  0  0  0
 17 18  1  0  0  0  0
 17 25  1  0  0  0  0
 18 19  2  0  0  0  0
 18 24  1  0  0  0  0
 19 20  1  0  0  0  0
 19 23  1  0  0  0  0
 20 21  2  0  0  0  0
 20 22  1  0  0  0  0
 28 29  1  0  0  0  0
 28 46  1  0  0  0  0
 28 47  1  0  0  0  0
 29 30  1  0  0  0  0
 29 45  1  1  0  0  0
 30 31  1  0  0  0  0
 30 43  1  0  0  0  0
 30 44  1  0  0  0  0
 31 32  2  0  0  0  0
 31 33  2  0  0  0  0
 31 34  1  0  0  0  0
 34 35  1  0  0  0  0
 34 39  1  0  0  0  0
 35 36  1  0  0  0  0
 35 37  1  0  0  0  0
 35 38  1  0  0  0  0
 39 40  1  0  0  0  0
 39 41  1  0  0  0  0
 39 42  1  0  0  0  0
 48 49  2  0  0  0  0
 48 54  1  0  0  0  0
 49 50  1  0  0  0  0
 49 59  1  0  0  0  0
 50 51  1  0  0  0  0
 50 52  2  0  0  0  0
 52 53  1  0  0  0  0
 52 58  1  0  0  0  0
 53 54  2  0  0  0  0
 53 57  1  0  0  0  0
 54 55  1  0  0  0  0
 55 56  2  0  0  0  0
M  END
>  <MODEL>
       6

$$$$
best_conformers_95.pdb
 OpenBabel02042510453D

 67 71  0  0  1  0  0  0  0  0999 V2000
    5.0390   -7.9730   25.7070 C   0  0  0  0  0  0  0  0  0  0  0  0
    4.5210   -6.8370   24.9720 N   0  0  0  0  0  0  0  0  0  0  0  0
    5.1640   -6.4260   23.8520 C   0  0  0  0  0  0  0  0  0  0  0  0
    6.1760   -6.9590   23.4270 O   0  0  0  0  0  0  0  0  0  0  0  0
    4.5380   -5.2010   23.1840 C   0  0  0  0  0  0  0  0  0  0  0  0
    5.1030   -3.9860   23.7330 N   0  0  0  0  0  0  0  0  0  0  0  0
    6.4390   -3.5840   23.3200 C   0  0  0  0  0  0  0  0  0  0  0  0
    6.4760   -2.0820   22.9840 C   0  0  2  0  0  0  0  0  0  0  0  0
    5.6780   -1.8290   21.6900 C   0  0  0  0  0  0  0  0  0  0  0  0
    4.6360   -2.3480   21.3460 O   0  0  0  0  0  0  0  0  0  0  0  0
    6.3610   -0.8950   20.9470 N   0  0  0  0  0  0  0  0  0  0  0  0
    5.7890   -0.2230   19.8460 C   0  0  0  0  0  0  0  0  0  0  0  0
    6.2850   -0.4500   18.5890 C   0  0  0  0  0  0  0  0  0  0  0  0
    5.8200    0.1310   17.4580 N   0  0  0  0  0  0  0  0  0  0  0  0
    4.8310    0.9830   17.6050 C   0  0  0  0  0  0  0  0  0  0  0  0
    4.2480    1.3340   18.8560 C   0  0  0  0  0  0  0  0  0  0  0  0
    3.2060    2.2940   18.9410 C   0  0  0  0  0  0  0  0  0  0  0  0
    2.6950    2.6500   20.1560 C   0  0  0  0  0  0  0  0  0  0  0  0
    3.2020    2.0710   21.3440 C   0  0  0  0  0  0  0  0  0  0  0  0
    4.2020    1.1320   21.2940 C   0  0  0  0  0  0  0  0  0  0  0  0
    4.7410    0.7300   20.0330 C   0  0  0  0  0  0  0  0  0  0  0  0
    4.5890    0.7050   22.2230 H   0  0  0  0  0  0  0  0  0  0  0  0
    2.7920    2.3820   22.3020 H   0  0  0  0  0  0  0  0  0  0  0  0
    1.9070    3.3960   20.2180 H   0  0  0  0  0  0  0  0  0  0  0  0
    2.8470    2.7450   18.0180 H   0  0  0  0  0  0  0  0  0  0  0  0
    4.4380    1.4450   16.7010 H   0  0  0  0  0  0  0  0  0  0  0  0
    7.1080   -1.1530   18.4710 H   0  0  0  0  0  0  0  0  0  0  0  0
    7.6650   -0.5500   21.4480 C   0  0  0  0  0  0  0  0  0  0  0  0
    7.8930   -1.5360   22.6140 C   0  0  2  0  0  0  0  0  0  0  0  0
    8.9510   -2.5640   22.1740 C   0  0  0  0  0  0  0  0  0  0  0  0
    9.9730   -3.3090   23.4690 S   0  0  0  0  0  0  0  0  0  0  0  0
   11.3380   -3.2720   22.9740 O   0  0  0  0  0  0  0  0  0  0  0  0
    9.3610   -4.5710   23.8700 O   0  0  0  0  0  0  0  0  0  0  0  0
    9.9600   -2.2720   24.7590 N   0  0  0  0  0  0  0  0  0  0  0  0
    9.0540   -2.5070   25.8760 C   0  0  0  0  0  0  0  0  0  0  0  0
    8.7900   -3.5650   25.9490 H   0  0  0  0  0  0  0  0  0  0  0  0
    9.5360   -2.2140   26.8080 H   0  0  0  0  0  0  0  0  0  0  0  0
    8.1210   -1.9360   25.7830 H   0  0  0  0  0  0  0  0  0  0  0  0
   11.0370   -1.2840   24.8300 C   0  0  0  0  0  0  0  0  0  0  0  0
   10.7330   -0.3190   24.3930 H   0  0  0  0  0  0  0  0  0  0  0  0
   11.8810   -1.6720   24.2530 H   0  0  0  0  0  0  0  0  0  0  0  0
   11.3380   -1.1610   25.8780 H   0  0  0  0  0  0  0  0  0  0  0  0
    9.7080   -2.0740   21.5520 H   0  0  0  0  0  0  0  0  0  0  0  0
    8.5220   -3.3760   21.5780 H   0  0  0  0  0  0  0  0  0  0  0  0
    8.3070   -1.0080   23.4810 H   0  0  0  0  0  0  0  0  0  0  0  0
    8.4110   -0.6570   20.6510 H   0  0  0  0  0  0  0  0  0  0  0  0
    7.7040    0.5020   21.7640 H   0  0  0  0  0  0  0  0  0  0  0  0
    5.8570   -1.3340   24.1760 C   0  0  0  0  0  0  0  0  0  0  0  0
    6.2270   -0.0150   24.4880 C   0  0  0  0  0  0  0  0  0  0  0  0
    5.6580    0.6310   25.5720 C   0  0  0  0  0  0  0  0  0  0  0  0
    6.0660    1.8780   25.8790 F   0  0  0  0  0  0  0  0  0  0  0  0
    4.7000    0.0280   26.3770 C   0  0  0  0  0  0  0  0  0  0  0  0
    4.3240   -1.2670   26.0750 C   0  0  0  0  0  0  0  0  0  0  0  0
    4.8960   -1.9460   24.9980 C   0  0  0  0  0  0  0  0  0  0  0  0
    4.4500   -3.3540   24.7470 C   0  0  0  0  0  0  0  0  0  0  0  0
    3.5510   -3.8990   25.3850 O   0  0  0  0  0  0  0  0  0  0  0  0
    3.5840   -1.7930   26.6720 H   0  0  0  0  0  0  0  0  0  0  0  0
    4.2860    0.5630   27.2250 H   0  0  0  0  0  0  0  0  0  0  0  0
    6.9880    0.5220   23.9320 H   0  0  0  0  0  0  0  0  0  0  0  0
    6.7120   -4.1860   22.4530 H   0  0  0  0  0  0  0  0  0  0  0  0
    7.1710   -3.7910   24.1100 H   0  0  0  0  0  0  0  0  0  0  0  0
    3.4580   -5.1880   23.3430 H   0  0  0  0  0  0  0  0  0  0  0  0
    4.7250   -5.2120   22.1050 H   0  0  0  0  0  0  0  0  0  0  0  0
    3.8740   -6.1930   25.4090 H   0  0  0  0  0  0  0  0  0  0  0  0
    5.0600   -8.8490   25.0520 H   0  0  0  0  0  0  0  0  0  0  0  0
    6.0600   -7.7880   26.0620 H   0  0  0  0  0  0  0  0  0  0  0  0
    4.3840   -8.1740   26.5560 H   0  0  0  0  0  0  0  0  0  0  0  0
  1  2  1  0  0  0  0
  1 65  1  0  0  0  0
  1 66  1  0  0  0  0
  1 67  1  0  0  0  0
  2  3  1  0  0  0  0
  2 64  1  0  0  0  0
  3  4  2  0  0  0  0
  3  5  1  0  0  0  0
  5  6  1  0  0  0  0
  5 62  1  0  0  0  0
  5 63  1  0  0  0  0
  6  7  1  0  0  0  0
  6 55  1  0  0  0  0
  7  8  1  0  0  0  0
  7 60  1  0  0  0  0
  7 61  1  0  0  0  0
  8  9  1  6  0  0  0
  8 29  1  0  0  0  0
  8 48  1  0  0  0  0
  9 10  2  0  0  0  0
  9 11  1  0  0  0  0
 11 12  1  0  0  0  0
 11 28  1  0  0  0  0
 12 13  2  0  0  0  0
 12 21  1  0  0  0  0
 13 14  1  0  0  0  0
 13 27  1  0  0  0  0
 14 15  2  0  0  0  0
 15 16  1  0  0  0  0
 15 26  1  0  0  0  0
 16 17  2  0  0  0  0
 16 21  1  0  0  0  0
 17 18  1  0  0  0  0
 17 25  1  0  0  0  0
 18 19  2  0  0  0  0
 18 24  1  0  0  0  0
 19 20  1  0  0  0  0
 19 23  1  0  0  0  0
 20 21  2  0  0  0  0
 20 22  1  0  0  0  0
 28 29  1  0  0  0  0
 28 46  1  0  0  0  0
 28 47  1  0  0  0  0
 29 30  1  0  0  0  0
 29 45  1  1  0  0  0
 30 31  1  0  0  0  0
 30 43  1  0  0  0  0
 30 44  1  0  0  0  0
 31 32  2  0  0  0  0
 31 33  2  0  0  0  0
 31 34  1  0  0  0  0
 34 35  1  0  0  0  0
 34 39  1  0  0  0  0
 35 36  1  0  0  0  0
 35 37  1  0  0  0  0
 35 38  1  0  0  0  0
 39 40  1  0  0  0  0
 39 41  1  0  0  0  0
 39 42  1  0  0  0  0
 48 49  2  0  0  0  0
 48 54  1  0  0  0  0
 49 50  1  0  0  0  0
 49 59  1  0  0  0  0
 50 51  1  0  0  0  0
 50 52  2  0  0  0  0
 52 53  1  0  0  0  0
 52 58  1  0  0  0  0
 53 54  2  0  0  0  0
 53 57  1  0  0  0  0
 54 55  1  0  0  0  0
 55 56  2  0  0  0  0
M  END
>  <MODEL>
       7

$$$$
best_conformers_95.pdb
 OpenBabel02042510453D

 67 71  0  0  1  0  0  0  0  0999 V2000
    4.8900   -8.1930   25.2830 C   0  0  0  0  0  0  0  0  0  0  0  0
    4.4820   -6.9320   24.7070 N   0  0  0  0  0  0  0  0  0  0  0  0
    5.1270   -6.4900   23.6040 C   0  0  0  0  0  0  0  0  0  0  0  0
    6.1280   -7.0320   23.1530 O   0  0  0  0  0  0  0  0  0  0  0  0
    4.5370   -5.2260   22.9920 C   0  0  0  0  0  0  0  0  0  0  0  0
    5.1730   -4.0730   23.5880 N   0  0  0  0  0  0  0  0  0  0  0  0
    6.5090   -3.6750   23.1550 C   0  0  0  0  0  0  0  0  0  0  0  0
    6.5350   -2.1550   22.9210 C   0  0  2  0  0  0  0  0  0  0  0  0
    5.7020   -1.8400   21.6620 C   0  0  0  0  0  0  0  0  0  0  0  0
    4.6510   -2.3370   21.3150 O   0  0  0  0  0  0  0  0  0  0  0  0
    6.3690   -0.8670   20.9590 N   0  0  0  0  0  0  0  0  0  0  0  0
    5.8020   -0.2140   19.8530 C   0  0  0  0  0  0  0  0  0  0  0  0
    6.3010   -0.4490   18.5990 C   0  0  0  0  0  0  0  0  0  0  0  0
    5.8280    0.1220   17.4670 N   0  0  0  0  0  0  0  0  0  0  0  0
    4.8370    0.9720   17.6120 C   0  0  0  0  0  0  0  0  0  0  0  0
    4.2580    1.3270   18.8640 C   0  0  0  0  0  0  0  0  0  0  0  0
    3.2150    2.2820   18.9470 C   0  0  0  0  0  0  0  0  0  0  0  0
    2.7050    2.6400   20.1620 C   0  0  0  0  0  0  0  0  0  0  0  0
    3.2110    2.0660   21.3530 C   0  0  0  0  0  0  0  0  0  0  0  0
    4.2160    1.1300   21.3070 C   0  0  0  0  0  0  0  0  0  0  0  0
    4.7530    0.7330   20.0430 C   0  0  0  0  0  0  0  0  0  0  0  0
    4.6040    0.7000   22.2350 H   0  0  0  0  0  0  0  0  0  0  0  0
    2.8000    2.3800   22.3080 H   0  0  0  0  0  0  0  0  0  0  0  0
    1.9180    3.3870   20.2210 H   0  0  0  0  0  0  0  0  0  0  0  0
    2.8580    2.7310   18.0230 H   0  0  0  0  0  0  0  0  0  0  0  0
    4.4400    1.4320   16.7090 H   0  0  0  0  0  0  0  0  0  0  0  0
    7.1220   -1.1550   18.4760 H   0  0  0  0  0  0  0  0  0  0  0  0
    7.7390   -0.6540   21.3420 C   0  0  0  0  0  0  0  0  0  0  0  0
    7.9410   -1.5590   22.5740 C   0  0  2  0  0  0  0  0  0  0  0  0
    9.0740   -2.5610   22.3230 C   0  0  0  0  0  0  0  0  0  0  0  0
   10.6760   -1.7510   22.1630 S   0  0  0  0  0  0  0  0  0  0  0  0
   11.7200   -2.7610   22.1910 O   0  0  0  0  0  0  0  0  0  0  0  0
   10.5680   -0.8250   21.0470 O   0  0  0  0  0  0  0  0  0  0  0  0
   10.9750   -0.8200   23.5590 N   0  0  0  0  0  0  0  0  0  0  0  0
   12.2730   -0.1420   23.3230 C   0  0  0  0  0  0  0  0  0  0  0  0
   13.0840   -0.8750   23.2160 H   0  0  0  0  0  0  0  0  0  0  0  0
   12.4930    0.5100   24.1730 H   0  0  0  0  0  0  0  0  0  0  0  0
   12.2050    0.4590   22.4100 H   0  0  0  0  0  0  0  0  0  0  0  0
   11.0400   -1.6230   24.7920 C   0  0  0  0  0  0  0  0  0  0  0  0
   11.3040   -0.9400   25.6050 H   0  0  0  0  0  0  0  0  0  0  0  0
   11.8020   -2.4110   24.7350 H   0  0  0  0  0  0  0  0  0  0  0  0
   10.0680   -2.0720   25.0300 H   0  0  0  0  0  0  0  0  0  0  0  0
    8.9380   -3.1060   21.3810 H   0  0  0  0  0  0  0  0  0  0  0  0
    9.1870   -3.2970   23.1190 H   0  0  0  0  0  0  0  0  0  0  0  0
    8.2820   -0.9760   23.4360 H   0  0  0  0  0  0  0  0  0  0  0  0
    7.9370    0.3990   21.5750 H   0  0  0  0  0  0  0  0  0  0  0  0
    8.4150   -0.9220   20.5250 H   0  0  0  0  0  0  0  0  0  0  0  0
    5.9290   -1.4740   24.1530 C   0  0  0  0  0  0  0  0  0  0  0  0
    6.2200   -0.1350   24.4590 C   0  0  0  0  0  0  0  0  0  0  0  0
    5.7020    0.4440   25.6040 C   0  0  0  0  0  0  0  0  0  0  0  0
    6.0590    1.7030   25.9160 F   0  0  0  0  0  0  0  0  0  0  0  0
    4.8500   -0.2350   26.4670 C   0  0  0  0  0  0  0  0  0  0  0  0
    4.5160   -1.5340   26.1420 C   0  0  0  0  0  0  0  0  0  0  0  0
    5.0360   -2.1430   25.0010 C   0  0  0  0  0  0  0  0  0  0  0  0
    4.5800   -3.5220   24.6790 C   0  0  0  0  0  0  0  0  0  0  0  0
    3.7060   -4.1160   25.3180 O   0  0  0  0  0  0  0  0  0  0  0  0
    3.8420   -2.1110   26.7660 H   0  0  0  0  0  0  0  0  0  0  0  0
    4.4710    0.2540   27.3590 H   0  0  0  0  0  0  0  0  0  0  0  0
    6.8780    0.4660   23.8380 H   0  0  0  0  0  0  0  0  0  0  0  0
    6.7380   -4.2120   22.2320 H   0  0  0  0  0  0  0  0  0  0  0  0
    7.2630   -3.9570   23.9070 H   0  0  0  0  0  0  0  0  0  0  0  0
    3.4590   -5.1690   23.1770 H   0  0  0  0  0  0  0  0  0  0  0  0
    4.6920   -5.1930   21.9110 H   0  0  0  0  0  0  0  0  0  0  0  0
    3.8770   -6.2880   25.1950 H   0  0  0  0  0  0  0  0  0  0  0  0
    4.8650   -8.9550   24.4980 H   0  0  0  0  0  0  0  0  0  0  0  0
    4.1920   -8.4680   26.0720 H   0  0  0  0  0  0  0  0  0  0  0  0
    5.9030   -8.1490   25.6970 H   0  0  0  0  0  0  0  0  0  0  0  0
  1  2  1  0  0  0  0
  1 65  1  0  0  0  0
  1 66  1  0  0  0  0
  1 67  1  0  0  0  0
  2  3  1  0  0  0  0
  2 64  1  0  0  0  0
  3  4  2  0  0  0  0
  3  5  1  0  0  0  0
  5  6  1  0  0  0  0
  5 62  1  0  0  0  0
  5 63  1  0  0  0  0
  6  7  1  0  0  0  0
  6 55  1  0  0  0  0
  7  8  1  0  0  0  0
  7 60  1  0  0  0  0
  7 61  1  0  0  0  0
  8  9  1  6  0  0  0
  8 29  1  0  0  0  0
  8 48  1  0  0  0  0
  9 10  2  0  0  0  0
  9 11  1  0  0  0  0
 11 12  1  0  0  0  0
 11 28  1  0  0  0  0
 12 13  2  0  0  0  0
 12 21  1  0  0  0  0
 13 14  1  0  0  0  0
 13 27  1  0  0  0  0
 14 15  2  0  0  0  0
 15 16  1  0  0  0  0
 15 26  1  0  0  0  0
 16 17  2  0  0  0  0
 16 21  1  0  0  0  0
 17 18  1  0  0  0  0
 17 25  1  0  0  0  0
 18 19  2  0  0  0  0
 18 24  1  0  0  0  0
 19 20  1  0  0  0  0
 19 23  1  0  0  0  0
 20 21  2  0  0  0  0
 20 22  1  0  0  0  0
 28 29  1  0  0  0  0
 28 46  1  0  0  0  0
 28 47  1  0  0  0  0
 29 30  1  0  0  0  0
 29 45  1  1  0  0  0
 30 31  1  0  0  0  0
 30 43  1  0  0  0  0
 30 44  1  0  0  0  0
 31 32  2  0  0  0  0
 31 33  2  0  0  0  0
 31 34  1  0  0  0  0
 34 35  1  0  0  0  0
 34 39  1  0  0  0  0
 35 36  1  0  0  0  0
 35 37  1  0  0  0  0
 35 38  1  0  0  0  0
 39 40  1  0  0  0  0
 39 41  1  0  0  0  0
 39 42  1  0  0  0  0
 48 49  2  0  0  0  0
 48 54  1  0  0  0  0
 49 50  1  0  0  0  0
 49 59  1  0  0  0  0
 50 51  1  0  0  0  0
 50 52  2  0  0  0  0
 52 53  1  0  0  0  0
 52 58  1  0  0  0  0
 53 54  2  0  0  0  0
 53 57  1  0  0  0  0
 54 55  1  0  0  0  0
 55 56  2  0  0  0  0
M  END
>  <MODEL>
       8

$$$$
best_conformers_95.pdb
 OpenBabel02042510453D

 67 71  0  0  1  0  0  0  0  0999 V2000
    6.9470    4.9880   24.5950 C   0  0  0  0  0  0  0  0  0  0  0  0
    6.6930    3.7200   25.2520 N   0  0  0  0  0  0  0  0  0  0  0  0
    5.9610    2.7740   24.5990 C   0  0  0  0  0  0  0  0  0  0  0  0
    5.4020    2.9780   23.5320 O   0  0  0  0  0  0  0  0  0  0  0  0
    5.8720    1.4200   25.3180 C   0  0  0  0  0  0  0  0  0  0  0  0
    6.8850    0.5000   24.8100 N   0  0  0  0  0  0  0  0  0  0  0  0
    6.5200   -0.7560   24.1850 C   0  0  0  0  0  0  0  0  0  0  0  0
    7.4630   -1.1080   23.0010 C   0  0  2  0  0  0  0  0  0  0  0  0
    7.1870   -0.2000   21.7940 C   0  0  0  0  0  0  0  0  0  0  0  0
    7.6090    0.9150   21.5830 O   0  0  0  0  0  0  0  0  0  0  0  0
    6.3680   -0.8820   20.9270 N   0  0  0  0  0  0  0  0  0  0  0  0
    5.8000   -0.2280   19.8210 C   0  0  0  0  0  0  0  0  0  0  0  0
    6.2710   -0.4980   18.5630 C   0  0  0  0  0  0  0  0  0  0  0  0
    5.8070    0.0870   17.4340 N   0  0  0  0  0  0  0  0  0  0  0  0
    4.8330    0.9590   17.5750 C   0  0  0  0  0  0  0  0  0  0  0  0
    4.2530    1.3220   18.8250 C   0  0  0  0  0  0  0  0  0  0  0  0
    3.2020    2.2720   18.9190 C   0  0  0  0  0  0  0  0  0  0  0  0
    2.6660    2.6010   20.1340 C   0  0  0  0  0  0  0  0  0  0  0  0
    3.1620    2.0060   21.3160 C   0  0  0  0  0  0  0  0  0  0  0  0
    4.1800    1.0860   21.2510 C   0  0  0  0  0  0  0  0  0  0  0  0
    4.7510    0.7230   19.9980 C   0  0  0  0  0  0  0  0  0  0  0  0
    4.5680    0.6530   22.1680 H   0  0  0  0  0  0  0  0  0  0  0  0
    2.7600    2.2930   22.2810 H   0  0  0  0  0  0  0  0  0  0  0  0
    1.8620    3.3290   20.1990 H   0  0  0  0  0  0  0  0  0  0  0  0
    2.8460    2.7340   18.0030 H   0  0  0  0  0  0  0  0  0  0  0  0
    4.4560    1.4330   16.6700 H   0  0  0  0  0  0  0  0  0  0  0  0
    7.0870   -1.2090   18.4370 H   0  0  0  0  0  0  0  0  0  0  0  0
    6.0780   -2.2430   21.3060 C   0  0  0  0  0  0  0  0  0  0  0  0
    7.1090   -2.5010   22.4140 C   0  0  2  0  0  0  0  0  0  0  0  0
    6.6240   -3.5420   23.4170 C   0  0  0  0  0  0  0  0  0  0  0  0
    6.2150   -5.0320   22.5330 S   0  0  0  0  0  0  0  0  0  0  0  0
    4.8850   -4.8670   21.9570 O   0  0  0  0  0  0  0  0  0  0  0  0
    7.3430   -5.3800   21.6800 O   0  0  0  0  0  0  0  0  0  0  0  0
    6.1620   -6.1610   23.7760 N   0  0  0  0  0  0  0  0  0  0  0  0
    4.9910   -6.0490   24.6410 C   0  0  0  0  0  0  0  0  0  0  0  0
    5.0140   -6.9020   25.3250 H   0  0  0  0  0  0  0  0  0  0  0  0
    5.0560   -5.1470   25.2540 H   0  0  0  0  0  0  0  0  0  0  0  0
    4.0440   -6.0440   24.0860 H   0  0  0  0  0  0  0  0  0  0  0  0
    6.3660   -7.5040   23.2300 C   0  0  0  0  0  0  0  0  0  0  0  0
    5.6270   -7.7500   22.4580 H   0  0  0  0  0  0  0  0  0  0  0  0
    7.3650   -7.5500   22.7980 H   0  0  0  0  0  0  0  0  0  0  0  0
    6.3020   -8.2190   24.0530 H   0  0  0  0  0  0  0  0  0  0  0  0
    5.6970   -3.2220   23.9090 H   0  0  0  0  0  0  0  0  0  0  0  0
    7.3910   -3.7670   24.1650 H   0  0  0  0  0  0  0  0  0  0  0  0
    8.0080   -2.9020   21.9380 H   0  0  0  0  0  0  0  0  0  0  0  0
    6.1900   -2.9270   20.4630 H   0  0  0  0  0  0  0  0  0  0  0  0
    5.0490   -2.3430   21.6760 H   0  0  0  0  0  0  0  0  0  0  0  0
    8.8970   -0.9240   23.4250 C   0  0  0  0  0  0  0  0  0  0  0  0
    9.9410   -1.3790   22.6050 C   0  0  0  0  0  0  0  0  0  0  0  0
   11.2430   -1.2470   23.0360 C   0  0  0  0  0  0  0  0  0  0  0  0
   12.2460   -1.6190   22.2250 F   0  0  0  0  0  0  0  0  0  0  0  0
   11.5410   -0.7560   24.3030 C   0  0  0  0  0  0  0  0  0  0  0  0
   10.5140   -0.2430   25.0720 C   0  0  0  0  0  0  0  0  0  0  0  0
    9.2060   -0.2060   24.5870 C   0  0  0  0  0  0  0  0  0  0  0  0
    8.1690    0.6920   25.2200 C   0  0  0  0  0  0  0  0  0  0  0  0
    8.4400    1.5830   26.0210 O   0  0  0  0  0  0  0  0  0  0  0  0
   10.7440    0.1580   26.0500 H   0  0  0  0  0  0  0  0  0  0  0  0
   12.5680   -0.7420   24.6460 H   0  0  0  0  0  0  0  0  0  0  0  0
    9.7550   -1.7850   21.6180 H   0  0  0  0  0  0  0  0  0  0  0  0
    6.5810   -1.5460   24.9460 H   0  0  0  0  0  0  0  0  0  0  0  0
    5.4820   -0.6930   23.8320 H   0  0  0  0  0  0  0  0  0  0  0  0
    4.8780    1.0000   25.1400 H   0  0  0  0  0  0  0  0  0  0  0  0
    6.0130    1.5560   26.3970 H   0  0  0  0  0  0  0  0  0  0  0  0
    7.4320    3.3580   25.8430 H   0  0  0  0  0  0  0  0  0  0  0  0
    7.4220    5.6690   25.3070 H   0  0  0  0  0  0  0  0  0  0  0  0
    6.0030    5.4260   24.2630 H   0  0  0  0  0  0  0  0  0  0  0  0
    7.5860    4.8790   23.7090 H   0  0  0  0  0  0  0  0  0  0  0  0
  1  2  1  0  0  0  0
  1 65  1  0  0  0  0
  1 66  1  0  0  0  0
  1 67  1  0  0  0  0
  2  3  1  0  0  0  0
  2 64  1  0  0  0  0
  3  4  2  0  0  0  0
  3  5  1  0  0  0  0
  5  6  1  0  0  0  0
  5 62  1  0  0  0  0
  5 63  1  0  0  0  0
  6  7  1  0  0  0  0
  6 55  1  0  0  0  0
  7  8  1  0  0  0  0
  7 60  1  0  0  0  0
  7 61  1  0  0  0  0
  8  9  1  6  0  0  0
  8 29  1  0  0  0  0
  8 48  1  0  0  0  0
  9 10  2  0  0  0  0
  9 11  1  0  0  0  0
 11 12  1  0  0  0  0
 11 28  1  0  0  0  0
 12 13  2  0  0  0  0
 12 21  1  0  0  0  0
 13 14  1  0  0  0  0
 13 27  1  0  0  0  0
 14 15  2  0  0  0  0
 15 16  1  0  0  0  0
 15 26  1  0  0  0  0
 16 17  2  0  0  0  0
 16 21  1  0  0  0  0
 17 18  1  0  0  0  0
 17 25  1  0  0  0  0
 18 19  2  0  0  0  0
 18 24  1  0  0  0  0
 19 20  1  0  0  0  0
 19 23  1  0  0  0  0
 20 21  2  0  0  0  0
 20 22  1  0  0  0  0
 28 29  1  0  0  0  0
 28 46  1  0  0  0  0
 28 47  1  0  0  0  0
 29 30  1  0  0  0  0
 29 45  1  6  0  0  0
 30 31  1  0  0  0  0
 30 43  1  0  0  0  0
 30 44  1  0  0  0  0
 31 32  2  0  0  0  0
 31 33  2  0  0  0  0
 31 34  1  0  0  0  0
 34 35  1  0  0  0  0
 34 39  1  0  0  0  0
 35 36  1  0  0  0  0
 35 37  1  0  0  0  0
 35 38  1  0  0  0  0
 39 40  1  0  0  0  0
 39 41  1  0  0  0  0
 39 42  1  0  0  0  0
 48 49  2  0  0  0  0
 48 54  1  0  0  0  0
 49 50  1  0  0  0  0
 49 59  1  0  0  0  0
 50 51  1  0  0  0  0
 50 52  2  0  0  0  0
 52 53  1  0  0  0  0
 52 58  1  0  0  0  0
 53 54  2  0  0  0  0
 53 57  1  0  0  0  0
 54 55  1  0  0  0  0
 55 56  2  0  0  0  0
M  END
>  <MODEL>
       9

$$$$
