best_conformers_36.pdb
 OpenBabel02042510453D

 59 64  0  0  1  0  0  0  0  0999 V2000
    6.7880   -3.6270   23.3260 C   0  0  0  0  0  0  0  0  0  0  0  0
    7.2530   -2.4750   22.4240 C   0  0  1  0  0  0  0  0  0  0  0  0
    6.2890   -2.2040   21.2580 C   0  0  0  0  0  0  0  0  0  0  0  0
    6.4570   -0.7880   20.9750 N   0  0  0  0  0  0  0  0  0  0  0  0
    5.8490   -0.1510   19.8630 C   0  0  0  0  0  0  0  0  0  0  0  0
    6.2590   -0.4560   18.5910 C   0  0  0  0  0  0  0  0  0  0  0  0
    5.7680    0.1160   17.4630 N   0  0  0  0  0  0  0  0  0  0  0  0
    4.8060    0.9970   17.6090 C   0  0  0  0  0  0  0  0  0  0  0  0
    4.2390    1.3660   18.8590 C   0  0  0  0  0  0  0  0  0  0  0  0
    3.1780    2.3100   18.9540 C   0  0  0  0  0  0  0  0  0  0  0  0
    2.6290    2.6230   20.1660 C   0  0  0  0  0  0  0  0  0  0  0  0
    3.1130    1.9970   21.3410 C   0  0  0  0  0  0  0  0  0  0  0  0
    4.1400    1.0910   21.2730 C   0  0  0  0  0  0  0  0  0  0  0  0
    4.7560    0.7660   20.0310 C   0  0  0  0  0  0  0  0  0  0  0  0
    4.5010    0.6220   22.1840 H   0  0  0  0  0  0  0  0  0  0  0  0
    2.6740    2.2510   22.3030 H   0  0  0  0  0  0  0  0  0  0  0  0
    1.8240    3.3530   20.2390 H   0  0  0  0  0  0  0  0  0  0  0  0
    2.8180    2.7780   18.0390 H   0  0  0  0  0  0  0  0  0  0  0  0
    4.4210    1.4590   16.7010 H   0  0  0  0  0  0  0  0  0  0  0  0
    7.0430   -1.1950   18.4280 H   0  0  0  0  0  0  0  0  0  0  0  0
    7.0980   -0.0900   21.9730 C   0  0  0  0  0  0  0  0  0  0  0  0
    7.2880    1.1110   21.9640 O   0  0  0  0  0  0  0  0  0  0  0  0
    7.4630   -1.0710   23.0960 C   0  0  1  0  0  0  0  0  0  0  0  0
    6.5050   -0.7860   24.2730 C   0  0  0  0  0  0  0  0  0  0  0  0
    6.8930   -1.5190   25.4610 N   0  0  0  0  0  0  0  0  0  0  0  0
    5.8440   -1.8920   26.4070 C   0  0  0  0  0  0  0  0  0  0  0  0
    5.3510   -0.7640   27.2810 C   0  0  0  0  0  0  0  0  0  0  0  0
    5.8110   -0.4190   28.5700 C   0  0  0  0  0  0  0  0  0  0  0  0
    5.0960    0.7050   28.9090 C   0  0  0  0  0  0  0  0  0  0  0  0
    4.2610    0.9590   27.8800 N   0  0  0  0  0  0  0  0  0  0  0  0
    3.2880    2.0360   27.8100 C   0  0  0  0  0  0  0  0  0  0  0  0
    3.0550    2.2160   26.7580 H   0  0  0  0  0  0  0  0  0  0  0  0
    3.7320    2.9330   28.2550 H   0  0  0  0  0  0  0  0  0  0  0  0
    2.3730    1.7790   28.3590 H   0  0  0  0  0  0  0  0  0  0  0  0
    4.3910    0.0660   26.8860 N   0  0  0  0  0  0  0  0  0  0  0  0
    5.1090    1.3600   29.7710 H   0  0  0  0  0  0  0  0  0  0  0  0
    6.5660   -0.9470   29.1340 H   0  0  0  0  0  0  0  0  0  0  0  0
    6.2670   -2.6760   27.0410 H   0  0  0  0  0  0  0  0  0  0  0  0
    5.0020   -2.3110   25.8380 H   0  0  0  0  0  0  0  0  0  0  0  0
    8.1890   -1.5340   25.8970 C   0  0  0  0  0  0  0  0  0  0  0  0
    8.4860   -1.9340   27.0090 O   0  0  0  0  0  0  0  0  0  0  0  0
    9.2260   -1.0840   24.9200 C   0  0  0  0  0  0  0  0  0  0  0  0
   10.5520   -0.9810   25.3450 C   0  0  0  0  0  0  0  0  0  0  0  0
   11.5610   -0.6900   24.4440 C   0  0  0  0  0  0  0  0  0  0  0  0
   11.2110   -0.5210   23.1100 C   0  0  0  0  0  0  0  0  0  0  0  0
   12.1800   -0.2460   22.2240 F   0  0  0  0  0  0  0  0  0  0  0  0
    9.9100   -0.6240   22.6610 C   0  0  0  0  0  0  0  0  0  0  0  0
    8.8880   -0.8850   23.5790 C   0  0  0  0  0  0  0  0  0  0  0  0
    9.7010   -0.4850   21.6050 H   0  0  0  0  0  0  0  0  0  0  0  0
   12.6060   -0.6050   24.7300 H   0  0  0  0  0  0  0  0  0  0  0  0
   10.7760   -1.1650   26.3900 H   0  0  0  0  0  0  0  0  0  0  0  0
    5.4780   -1.0870   24.0230 H   0  0  0  0  0  0  0  0  0  0  0  0
    6.5250    0.2980   24.4580 H   0  0  0  0  0  0  0  0  0  0  0  0
    5.2480   -2.4430   21.5300 H   0  0  0  0  0  0  0  0  0  0  0  0
    6.5280   -2.7890   20.3710 H   0  0  0  0  0  0  0  0  0  0  0  0
    8.2380   -2.7380   22.0140 H   0  0  0  0  0  0  0  0  0  0  0  0
    5.7900   -3.4300   23.7400 H   0  0  0  0  0  0  0  0  0  0  0  0
    7.4670   -3.7680   24.1740 H   0  0  0  0  0  0  0  0  0  0  0  0
    6.7350   -4.5700   22.7680 H   0  0  0  0  0  0  0  0  0  0  0  0
  1  2  1  0  0  0  0
  1 57  1  0  0  0  0
  1 58  1  0  0  0  0
  1 59  1  0  0  0  0
  2  3  1  0  0  0  0
  2 23  1  0  0  0  0
  2 56  1  6  0  0  0
  3  4  1  0  0  0  0
  3 54  1  0  0  0  0
  3 55  1  0  0  0  0
  4  5  1  0  0  0  0
  4 21  1  0  0  0  0
  5  6  2  0  0  0  0
  5 14  1  0  0  0  0
  6  7  1  0  0  0  0
  6 20  1  0  0  0  0
  7  8  2  0  0  0  0
  8  9  1  0  0  0  0
  8 19  1  0  0  0  0
  9 10  2  0  0  0  0
  9 14  1  0  0  0  0
 10 11  1  0  0  0  0
 10 18  1  0  0  0  0
 11 12  2  0  0  0  0
 11 17  1  0  0  0  0
 12 13  1  0  0  0  0
 12 16  1  0  0  0  0
 13 14  2  0  0  0  0
 13 15  1  0  0  0  0
 21 22  2  0  0  0  0
 23 21  1  6  0  0  0
 23 24  1  0  0  0  0
 23 48  1  0  0  0  0
 24 25  1  0  0  0  0
 24 52  1  0  0  0  0
 24 53  1  0  0  0  0
 25 26  1  0  0  0  0
 25 40  1  0  0  0  0
 26 27  1  0  0  0  0
 26 38  1  0  0  0  0
 26 39  1  0  0  0  0
 27 28  1  0  0  0  0
 27 35  2  0  0  0  0
 28 29  2  0  0  0  0
 28 37  1  0  0  0  0
 29 30  1  0  0  0  0
 29 36  1  0  0  0  0
 30 31  1  0  0  0  0
 30 35  1  0  0  0  0
 31 32  1  0  0  0  0
 31 33  1  0  0  0  0
 31 34  1  0  0  0  0
 40 41  2  0  0  0  0
 40 42  1  0  0  0  0
 42 43  2  0  0  0  0
 42 48  1  0  0  0  0
 43 44  1  0  0  0  0
 43 51  1  0  0  0  0
 44 45  2  0  0  0  0
 44 50  1  0  0  0  0
 45 46  1  0  0  0  0
 45 47  1  0  0  0  0
 47 48  2  0  0  0  0
 47 49  1  0  0  0  0
M  END
>  <MODEL>
       1

$$$$
best_conformers_36.pdb
 OpenBabel02042510453D

 59 64  0  0  1  0  0  0  0  0999 V2000
    6.8480   -3.6070   23.3320 C   0  0  0  0  0  0  0  0  0  0  0  0
    7.2940   -2.4510   22.4240 C   0  0  1  0  0  0  0  0  0  0  0  0
    6.3190   -2.1940   21.2620 C   0  0  0  0  0  0  0  0  0  0  0  0
    6.4650   -0.7760   20.9780 N   0  0  0  0  0  0  0  0  0  0  0  0
    5.8520   -0.1470   19.8640 C   0  0  0  0  0  0  0  0  0  0  0  0
    6.2600   -0.4550   18.5910 C   0  0  0  0  0  0  0  0  0  0  0  0
    5.7670    0.1150   17.4640 N   0  0  0  0  0  0  0  0  0  0  0  0
    4.8050    0.9960   17.6090 C   0  0  0  0  0  0  0  0  0  0  0  0
    4.2390    1.3660   18.8590 C   0  0  0  0  0  0  0  0  0  0  0  0
    3.1780    2.3090   18.9540 C   0  0  0  0  0  0  0  0  0  0  0  0
    2.6290    2.6230   20.1670 C   0  0  0  0  0  0  0  0  0  0  0  0
    3.1120    1.9960   21.3420 C   0  0  0  0  0  0  0  0  0  0  0  0
    4.1400    1.0900   21.2720 C   0  0  0  0  0  0  0  0  0  0  0  0
    4.7570    0.7670   20.0300 C   0  0  0  0  0  0  0  0  0  0  0  0
    4.5000    0.6210   22.1830 H   0  0  0  0  0  0  0  0  0  0  0  0
    2.6740    2.2500   22.3040 H   0  0  0  0  0  0  0  0  0  0  0  0
    1.8230    3.3520   20.2400 H   0  0  0  0  0  0  0  0  0  0  0  0
    2.8180    2.7780   18.0400 H   0  0  0  0  0  0  0  0  0  0  0  0
    4.4210    1.4580   16.7020 H   0  0  0  0  0  0  0  0  0  0  0  0
    7.0440   -1.1950   18.4270 H   0  0  0  0  0  0  0  0  0  0  0  0
    7.1050   -0.0690   21.9710 C   0  0  0  0  0  0  0  0  0  0  0  0
    7.2800    1.1340   21.9570 O   0  0  0  0  0  0  0  0  0  0  0  0
    7.4930   -1.0450   23.0910 C   0  0  1  0  0  0  0  0  0  0  0  0
    6.5470   -0.7760   24.2770 C   0  0  0  0  0  0  0  0  0  0  0  0
    6.9640   -1.4880   25.4750 N   0  0  0  0  0  0  0  0  0  0  0  0
    5.9530   -1.8790   26.4580 C   0  0  0  0  0  0  0  0  0  0  0  0
    5.4130   -0.7440   27.2980 C   0  0  0  0  0  0  0  0  0  0  0  0
    4.3320    0.1100   26.9770 C   0  0  0  0  0  0  0  0  0  0  0  0
    4.2840    1.0160   28.0100 C   0  0  0  0  0  0  0  0  0  0  0  0
    5.2590    0.6730   28.8760 N   0  0  0  0  0  0  0  0  0  0  0  0
    5.5670    1.3310   30.1310 C   0  0  0  0  0  0  0  0  0  0  0  0
    6.5860    1.0520   30.4100 H   0  0  0  0  0  0  0  0  0  0  0  0
    4.8630    1.0270   30.9150 H   0  0  0  0  0  0  0  0  0  0  0  0
    5.4960    2.4140   29.9820 H   0  0  0  0  0  0  0  0  0  0  0  0
    5.9410   -0.4060   28.4680 N   0  0  0  0  0  0  0  0  0  0  0  0
    3.6660    1.8810   28.2050 H   0  0  0  0  0  0  0  0  0  0  0  0
    3.6940    0.0580   26.1070 H   0  0  0  0  0  0  0  0  0  0  0  0
    6.4060   -2.6450   27.0990 H   0  0  0  0  0  0  0  0  0  0  0  0
    5.1130   -2.3240   25.9090 H   0  0  0  0  0  0  0  0  0  0  0  0
    8.2670   -1.4800   25.8840 C   0  0  0  0  0  0  0  0  0  0  0  0
    8.5970   -1.8800   26.9870 O   0  0  0  0  0  0  0  0  0  0  0  0
    9.2740   -1.0120   24.8930 C   0  0  0  0  0  0  0  0  0  0  0  0
   10.5990   -0.8950   25.3100 C   0  0  0  0  0  0  0  0  0  0  0  0
   11.5970   -0.6020   24.4010 C   0  0  0  0  0  0  0  0  0  0  0  0
   11.2320   -0.4470   23.0690 C   0  0  0  0  0  0  0  0  0  0  0  0
   12.1910   -0.1670   22.1740 F   0  0  0  0  0  0  0  0  0  0  0  0
    9.9290   -0.5690   22.6280 C   0  0  0  0  0  0  0  0  0  0  0  0
    8.9180   -0.8340   23.5550 C   0  0  0  0  0  0  0  0  0  0  0  0
    9.7110   -0.4410   21.5730 H   0  0  0  0  0  0  0  0  0  0  0  0
   12.6420   -0.5030   24.6790 H   0  0  0  0  0  0  0  0  0  0  0  0
   10.8280   -1.0740   26.3550 H   0  0  0  0  0  0  0  0  0  0  0  0
    5.5280   -1.1000   24.0250 H   0  0  0  0  0  0  0  0  0  0  0  0
    6.5530    0.3110   24.4430 H   0  0  0  0  0  0  0  0  0  0  0  0
    6.5620   -2.7740   20.3730 H   0  0  0  0  0  0  0  0  0  0  0  0
    5.2830   -2.4510   21.5380 H   0  0  0  0  0  0  0  0  0  0  0  0
    8.2800   -2.7040   22.0080 H   0  0  0  0  0  0  0  0  0  0  0  0
    6.8030   -4.5540   22.7770 H   0  0  0  0  0  0  0  0  0  0  0  0
    7.5320   -3.7360   24.1780 H   0  0  0  0  0  0  0  0  0  0  0  0
    5.8500   -3.4210   23.7520 H   0  0  0  0  0  0  0  0  0  0  0  0
  1  2  1  0  0  0  0
  1 57  1  0  0  0  0
  1 58  1  0  0  0  0
  1 59  1  0  0  0  0
  2  3  1  0  0  0  0
  2 23  1  0  0  0  0
  2 56  1  6  0  0  0
  3  4  1  0  0  0  0
  3 54  1  0  0  0  0
  3 55  1  0  0  0  0
  4  5  1  0  0  0  0
  4 21  1  0  0  0  0
  5  6  2  0  0  0  0
  5 14  1  0  0  0  0
  6  7  1  0  0  0  0
  6 20  1  0  0  0  0
  7  8  2  0  0  0  0
  8  9  1  0  0  0  0
  8 19  1  0  0  0  0
  9 10  2  0  0  0  0
  9 14  1  0  0  0  0
 10 11  1  0  0  0  0
 10 18  1  0  0  0  0
 11 12  2  0  0  0  0
 11 17  1  0  0  0  0
 12 13  1  0  0  0  0
 12 16  1  0  0  0  0
 13 14  2  0  0  0  0
 13 15  1  0  0  0  0
 21 22  2  0  0  0  0
 23 21  1  6  0  0  0
 23 24  1  0  0  0  0
 23 48  1  0  0  0  0
 24 25  1  0  0  0  0
 24 52  1  0  0  0  0
 24 53  1  0  0  0  0
 25 26  1  0  0  0  0
 25 40  1  0  0  0  0
 26 27  1  0  0  0  0
 26 38  1  0  0  0  0
 26 39  1  0  0  0  0
 27 28  1  0  0  0  0
 27 35  2  0  0  0  0
 28 29  2  0  0  0  0
 28 37  1  0  0  0  0
 29 30  1  0  0  0  0
 29 36  1  0  0  0  0
 30 31  1  0  0  0  0
 30 35  1  0  0  0  0
 31 32  1  0  0  0  0
 31 33  1  0  0  0  0
 31 34  1  0  0  0  0
 40 41  2  0  0  0  0
 40 42  1  0  0  0  0
 42 43  2  0  0  0  0
 42 48  1  0  0  0  0
 43 44  1  0  0  0  0
 43 51  1  0  0  0  0
 44 45  2  0  0  0  0
 44 50  1  0  0  0  0
 45 46  1  0  0  0  0
 45 47  1  0  0  0  0
 47 48  2  0  0  0  0
 47 49  1  0  0  0  0
M  END
>  <MODEL>
       2

$$$$
