best_conformers_3.pdb
 OpenBabel02042510453D

 67 73  0  0  1  0  0  0  0  0999 V2000
    3.6450   -4.0030   25.3350 O   0  0  0  0  0  0  0  0  0  0  0  0
    4.5460   -3.4520   24.7120 C   0  0  0  0  0  0  0  0  0  0  0  0
    5.0420   -2.0770   25.0420 C   0  0  0  0  0  0  0  0  0  0  0  0
    4.4910   -1.4280   26.1480 C   0  0  0  0  0  0  0  0  0  0  0  0
    4.8200   -0.1170   26.4330 C   0  0  0  0  0  0  0  0  0  0  0  0
    5.7000    0.5460   25.5820 C   0  0  0  0  0  0  0  0  0  0  0  0
    6.0840    2.2140   25.9050 Cl  0  0  0  0  0  0  0  0  0  0  0  0
    6.2670   -0.0850   24.4890 C   0  0  0  0  0  0  0  0  0  0  0  0
    5.9780   -1.4290   24.2220 C   0  0  0  0  0  0  0  0  0  0  0  0
    6.5620   -2.1180   22.9860 C   0  0  1  0  0  0  0  0  0  0  0  0
    6.4810   -3.6430   23.2200 C   0  0  0  0  0  0  0  0  0  0  0  0
    5.1480   -4.0370   23.6360 N   0  0  0  0  0  0  0  0  0  0  0  0
    4.5850   -5.2650   23.1040 C   0  0  0  0  0  0  0  0  0  0  0  0
    5.1180   -6.5220   23.7680 C   0  0  0  0  0  0  0  0  0  0  0  0
    6.3120   -7.1000   23.3980 C   0  0  0  0  0  0  0  0  0  0  0  0
    6.7340   -8.2130   24.1240 C   0  0  0  0  0  0  0  0  0  0  0  0
    6.0520   -8.7430   25.1310 N   0  0  0  0  0  0  0  0  0  0  0  0
    4.8890   -8.2150   25.4790 N   0  0  0  0  0  0  0  0  0  0  0  0
    4.4400   -7.1500   24.8230 C   0  0  0  0  0  0  0  0  0  0  0  0
    3.4830   -6.7720   25.1780 H   0  0  0  0  0  0  0  0  0  0  0  0
    7.6760   -8.7070   23.9000 H   0  0  0  0  0  0  0  0  0  0  0  0
    6.9130   -6.7060   22.5770 H   0  0  0  0  0  0  0  0  0  0  0  0
    3.5000   -5.2110   23.2210 H   0  0  0  0  0  0  0  0  0  0  0  0
    4.8170   -5.2820   22.0320 H   0  0  0  0  0  0  0  0  0  0  0  0
    7.2140   -3.9330   23.9880 H   0  0  0  0  0  0  0  0  0  0  0  0
    6.7090   -4.1690   22.2900 H   0  0  0  0  0  0  0  0  0  0  0  0
    5.6910   -1.7400   21.7640 C   0  0  0  0  0  0  0  0  0  0  0  0
    4.5630   -2.1190   21.5350 O   0  0  0  0  0  0  0  0  0  0  0  0
    6.3990   -0.8710   20.9650 N   0  0  0  0  0  0  0  0  0  0  0  0
    5.8040   -0.2070   19.8580 C   0  0  0  0  0  0  0  0  0  0  0  0
    6.2540   -0.4580   18.5870 C   0  0  0  0  0  0  0  0  0  0  0  0
    5.7780    0.1310   17.4610 N   0  0  0  0  0  0  0  0  0  0  0  0
    4.8050    1.0010   17.6060 C   0  0  0  0  0  0  0  0  0  0  0  0
    4.2380    1.3640   18.8610 C   0  0  0  0  0  0  0  0  0  0  0  0
    3.1900    2.3220   18.9560 C   0  0  0  0  0  0  0  0  0  0  0  0
    2.6770    2.6690   20.1750 C   0  0  0  0  0  0  0  0  0  0  0  0
    3.1980    2.0830   21.3530 C   0  0  0  0  0  0  0  0  0  0  0  0
    4.2130    1.1610   21.2900 C   0  0  0  0  0  0  0  0  0  0  0  0
    4.7510    0.7560   20.0320 C   0  0  0  0  0  0  0  0  0  0  0  0
    4.6030    0.7250   22.2090 H   0  0  0  0  0  0  0  0  0  0  0  0
    2.7840    2.3680   22.3160 H   0  0  0  0  0  0  0  0  0  0  0  0
    1.8750    3.4000   20.2490 H   0  0  0  0  0  0  0  0  0  0  0  0
    2.8140    2.7770   18.0400 H   0  0  0  0  0  0  0  0  0  0  0  0
    4.4140    1.4630   16.6990 H   0  0  0  0  0  0  0  0  0  0  0  0
    7.0450   -1.1890   18.4270 H   0  0  0  0  0  0  0  0  0  0  0  0
    7.7570   -0.6210   21.4090 C   0  0  0  0  0  0  0  0  0  0  0  0
    7.9840   -1.5940   22.5930 C   0  0  2  0  0  0  0  0  0  0  0  0
    9.0540   -2.6560   22.2170 C   0  0  0  0  0  0  0  0  0  0  0  0
   10.3610   -2.0870   21.9510 N   0  0  0  0  0  0  0  0  0  0  0  0
   11.2150   -1.6040   22.8860 C   0  0  0  0  0  0  0  0  0  0  0  0
   10.9900   -1.7570   24.2680 C   0  0  0  0  0  0  0  0  0  0  0  0
   11.9310   -1.2050   25.1130 C   0  0  0  0  0  0  0  0  0  0  0  0
   13.0100   -0.5430   24.6710 N   0  0  0  0  0  0  0  0  0  0  0  0
   13.1260   -0.4710   23.3470 C   0  0  0  0  0  0  0  0  0  0  0  0
   12.3060   -0.9670   22.4260 N   0  0  0  0  0  0  0  0  0  0  0  0
   14.0070    0.0630   22.9820 H   0  0  0  0  0  0  0  0  0  0  0  0
   11.8250   -1.2870   26.1980 H   0  0  0  0  0  0  0  0  0  0  0  0
   10.1170   -2.2810   24.6420 H   0  0  0  0  0  0  0  0  0  0  0  0
   10.7010   -2.0120   21.0040 H   0  0  0  0  0  0  0  0  0  0  0  0
    9.1490   -3.4070   23.0140 H   0  0  0  0  0  0  0  0  0  0  0  0
    8.7590   -3.1790   21.3030 H   0  0  0  0  0  0  0  0  0  0  0  0
    8.4080   -1.0640   23.4550 H   0  0  0  0  0  0  0  0  0  0  0  0
    8.4550   -0.7970   20.5810 H   0  0  0  0  0  0  0  0  0  0  0  0
    7.8850    0.4270   21.7140 H   0  0  0  0  0  0  0  0  0  0  0  0
    6.9150    0.5020   23.8460 H   0  0  0  0  0  0  0  0  0  0  0  0
    4.3940    0.4040   27.2830 H   0  0  0  0  0  0  0  0  0  0  0  0
    3.7800   -1.9740   26.7580 H   0  0  0  0  0  0  0  0  0  0  0  0
  1  2  2  0  0  0  0
  2  3  1  0  0  0  0
  2 12  1  0  0  0  0
  3  4  2  0  0  0  0
  3  9  1  0  0  0  0
  4  5  1  0  0  0  0
  4 67  1  0  0  0  0
  5  6  2  0  0  0  0
  5 66  1  0  0  0  0
  6  7  1  0  0  0  0
  6  8  1  0  0  0  0
  8  9  2  0  0  0  0
  8 65  1  0  0  0  0
 10  9  1  1  0  0  0
 10 11  1  0  0  0  0
 10 27  1  0  0  0  0
 10 47  1  0  0  0  0
 11 12  1  0  0  0  0
 11 25  1  0  0  0  0
 11 26  1  0  0  0  0
 12 13  1  0  0  0  0
 13 14  1  0  0  0  0
 13 23  1  0  0  0  0
 13 24  1  0  0  0  0
 14 15  2  0  0  0  0
 14 19  1  0  0  0  0
 15 16  1  0  0  0  0
 15 22  1  0  0  0  0
 16 17  2  0  0  0  0
 16 21  1  0  0  0  0
 17 18  1  0  0  0  0
 18 19  2  0  0  0  0
 19 20  1  0  0  0  0
 27 28  2  0  0  0  0
 27 29  1  0  0  0  0
 29 30  1  0  0  0  0
 29 46  1  0  0  0  0
 30 31  2  0  0  0  0
 30 39  1  0  0  0  0
 31 32  1  0  0  0  0
 31 45  1  0  0  0  0
 32 33  2  0  0  0  0
 33 34  1  0  0  0  0
 33 44  1  0  0  0  0
 34 35  2  0  0  0  0
 34 39  1  0  0  0  0
 35 36  1  0  0  0  0
 35 43  1  0  0  0  0
 36 37  2  0  0  0  0
 36 42  1  0  0  0  0
 37 38  1  0  0  0  0
 37 41  1  0  0  0  0
 38 39  2  0  0  0  0
 38 40  1  0  0  0  0
 46 47  1  0  0  0  0
 46 63  1  0  0  0  0
 46 64  1  0  0  0  0
 47 48  1  0  0  0  0
 47 62  1  1  0  0  0
 48 49  1  0  0  0  0
 48 60  1  0  0  0  0
 48 61  1  0  0  0  0
 49 50  1  0  0  0  0
 49 59  1  0  0  0  0
 50 51  2  0  0  0  0
 50 55  1  0  0  0  0
 51 52  1  0  0  0  0
 51 58  1  0  0  0  0
 52 53  2  0  0  0  0
 52 57  1  0  0  0  0
 53 54  1  0  0  0  0
 54 55  2  0  0  0  0
 54 56  1  0  0  0  0
M  END
>  <MODEL>
       1

$$$$
best_conformers_3.pdb
 OpenBabel02042510453D

 67 73  0  0  1  0  0  0  0  0999 V2000
    3.6450   -4.0020   25.3430 O   0  0  0  0  0  0  0  0  0  0  0  0
    4.5430   -3.4520   24.7170 C   0  0  0  0  0  0  0  0  0  0  0  0
    5.0400   -2.0770   25.0460 C   0  0  0  0  0  0  0  0  0  0  0  0
    4.4940   -1.4250   26.1530 C   0  0  0  0  0  0  0  0  0  0  0  0
    4.8240   -0.1150   26.4360 C   0  0  0  0  0  0  0  0  0  0  0  0
    5.7020    0.5480   25.5830 C   0  0  0  0  0  0  0  0  0  0  0  0
    6.0890    2.2160   25.9030 Cl  0  0  0  0  0  0  0  0  0  0  0  0
    6.2660   -0.0850   24.4890 C   0  0  0  0  0  0  0  0  0  0  0  0
    5.9730   -1.4290   24.2230 C   0  0  0  0  0  0  0  0  0  0  0  0
    6.5520   -2.1190   22.9860 C   0  0  1  0  0  0  0  0  0  0  0  0
    6.4720   -3.6450   23.2200 C   0  0  0  0  0  0  0  0  0  0  0  0
    5.1410   -4.0380   23.6390 N   0  0  0  0  0  0  0  0  0  0  0  0
    4.5770   -5.2650   23.1060 C   0  0  0  0  0  0  0  0  0  0  0  0
    5.1150   -6.5230   23.7630 C   0  0  0  0  0  0  0  0  0  0  0  0
    6.3050   -7.1030   23.3820 C   0  0  0  0  0  0  0  0  0  0  0  0
    6.7320   -8.2160   24.1030 C   0  0  0  0  0  0  0  0  0  0  0  0
    6.0590   -8.7450   25.1160 N   0  0  0  0  0  0  0  0  0  0  0  0
    4.9000   -8.2150   25.4760 N   0  0  0  0  0  0  0  0  0  0  0  0
    4.4470   -7.1500   24.8240 C   0  0  0  0  0  0  0  0  0  0  0  0
    3.4940   -6.7700   25.1890 H   0  0  0  0  0  0  0  0  0  0  0  0
    7.6710   -8.7110   23.8690 H   0  0  0  0  0  0  0  0  0  0  0  0
    6.8990   -6.7080   22.5550 H   0  0  0  0  0  0  0  0  0  0  0  0
    4.8040   -5.2810   22.0320 H   0  0  0  0  0  0  0  0  0  0  0  0
    3.4930   -5.2130   23.2270 H   0  0  0  0  0  0  0  0  0  0  0  0
    6.7000   -4.1710   22.2900 H   0  0  0  0  0  0  0  0  0  0  0  0
    7.2070   -3.9370   23.9860 H   0  0  0  0  0  0  0  0  0  0  0  0
    5.6830   -1.7390   21.7640 C   0  0  0  0  0  0  0  0  0  0  0  0
    4.5550   -2.1160   21.5370 O   0  0  0  0  0  0  0  0  0  0  0  0
    6.3940   -0.8710   20.9650 N   0  0  0  0  0  0  0  0  0  0  0  0
    5.8020   -0.2070   19.8570 C   0  0  0  0  0  0  0  0  0  0  0  0
    6.2530   -0.4580   18.5860 C   0  0  0  0  0  0  0  0  0  0  0  0
    5.7770    0.1320   17.4590 N   0  0  0  0  0  0  0  0  0  0  0  0
    4.8040    1.0020   17.6050 C   0  0  0  0  0  0  0  0  0  0  0  0
    4.2380    1.3650   18.8590 C   0  0  0  0  0  0  0  0  0  0  0  0
    3.1900    2.3240   18.9550 C   0  0  0  0  0  0  0  0  0  0  0  0
    2.6780    2.6700   20.1740 C   0  0  0  0  0  0  0  0  0  0  0  0
    3.1990    2.0840   21.3530 C   0  0  0  0  0  0  0  0  0  0  0  0
    4.2130    1.1620   21.2890 C   0  0  0  0  0  0  0  0  0  0  0  0
    4.7510    0.7570   20.0310 C   0  0  0  0  0  0  0  0  0  0  0  0
    4.6050    0.7250   22.2080 H   0  0  0  0  0  0  0  0  0  0  0  0
    2.7860    2.3690   22.3160 H   0  0  0  0  0  0  0  0  0  0  0  0
    1.8770    3.4020   20.2490 H   0  0  0  0  0  0  0  0  0  0  0  0
    2.8140    2.7780   18.0400 H   0  0  0  0  0  0  0  0  0  0  0  0
    4.4130    1.4640   16.6980 H   0  0  0  0  0  0  0  0  0  0  0  0
    7.0440   -1.1890   18.4260 H   0  0  0  0  0  0  0  0  0  0  0  0
    7.7530   -0.6270   21.4080 C   0  0  0  0  0  0  0  0  0  0  0  0
    7.9730   -1.6010   22.5920 C   0  0  2  0  0  0  0  0  0  0  0  0
    9.0350   -2.6740   22.2300 C   0  0  0  0  0  0  0  0  0  0  0  0
   10.3430   -2.0980   21.9600 N   0  0  0  0  0  0  0  0  0  0  0  0
   11.1940   -1.6350   22.9090 C   0  0  0  0  0  0  0  0  0  0  0  0
   12.4120   -1.0160   22.5380 C   0  0  0  0  0  0  0  0  0  0  0  0
   13.2050   -0.5540   23.5590 C   0  0  0  0  0  0  0  0  0  0  0  0
   12.8760   -0.6780   24.8580 N   0  0  0  0  0  0  0  0  0  0  0  0
   11.7220   -1.2880   25.0890 C   0  0  0  0  0  0  0  0  0  0  0  0
   10.8500   -1.7670   24.1970 N   0  0  0  0  0  0  0  0  0  0  0  0
   11.4420   -1.4100   26.1370 H   0  0  0  0  0  0  0  0  0  0  0  0
   14.1550   -0.0530   23.3620 H   0  0  0  0  0  0  0  0  0  0  0  0
   12.6970   -0.8880   21.4940 H   0  0  0  0  0  0  0  0  0  0  0  0
   10.6770   -2.0730   21.0100 H   0  0  0  0  0  0  0  0  0  0  0  0
    8.7360   -3.2100   21.3250 H   0  0  0  0  0  0  0  0  0  0  0  0
    9.1390   -3.3940   23.0530 H   0  0  0  0  0  0  0  0  0  0  0  0
    8.4110   -1.0850   23.4520 H   0  0  0  0  0  0  0  0  0  0  0  0
    8.4500   -0.8050   20.5810 H   0  0  0  0  0  0  0  0  0  0  0  0
    7.8890    0.4210   21.7130 H   0  0  0  0  0  0  0  0  0  0  0  0
    6.9170    0.4990   23.8450 H   0  0  0  0  0  0  0  0  0  0  0  0
    4.4000    0.4070   27.2860 H   0  0  0  0  0  0  0  0  0  0  0  0
    3.7840   -1.9700   26.7650 H   0  0  0  0  0  0  0  0  0  0  0  0
  1  2  2  0  0  0  0
  2  3  1  0  0  0  0
  2 12  1  0  0  0  0
  3  4  2  0  0  0  0
  3  9  1  0  0  0  0
  4  5  1  0  0  0  0
  4 67  1  0  0  0  0
  5  6  2  0  0  0  0
  5 66  1  0  0  0  0
  6  7  1  0  0  0  0
  6  8  1  0  0  0  0
  8  9  2  0  0  0  0
  8 65  1  0  0  0  0
 10  9  1  1  0  0  0
 10 11  1  0  0  0  0
 10 27  1  0  0  0  0
 10 47  1  0  0  0  0
 11 12  1  0  0  0  0
 11 25  1  0  0  0  0
 11 26  1  0  0  0  0
 12 13  1  0  0  0  0
 13 14  1  0  0  0  0
 13 23  1  0  0  0  0
 13 24  1  0  0  0  0
 14 15  2  0  0  0  0
 14 19  1  0  0  0  0
 15 16  1  0  0  0  0
 15 22  1  0  0  0  0
 16 17  2  0  0  0  0
 16 21  1  0  0  0  0
 17 18  1  0  0  0  0
 18 19  2  0  0  0  0
 19 20  1  0  0  0  0
 27 28  2  0  0  0  0
 27 29  1  0  0  0  0
 29 30  1  0  0  0  0
 29 46  1  0  0  0  0
 30 31  2  0  0  0  0
 30 39  1  0  0  0  0
 31 32  1  0  0  0  0
 31 45  1  0  0  0  0
 32 33  2  0  0  0  0
 33 34  1  0  0  0  0
 33 44  1  0  0  0  0
 34 35  2  0  0  0  0
 34 39  1  0  0  0  0
 35 36  1  0  0  0  0
 35 43  1  0  0  0  0
 36 37  2  0  0  0  0
 36 42  1  0  0  0  0
 37 38  1  0  0  0  0
 37 41  1  0  0  0  0
 38 39  2  0  0  0  0
 38 40  1  0  0  0  0
 46 47  1  0  0  0  0
 46 63  1  0  0  0  0
 46 64  1  0  0  0  0
 47 48  1  0  0  0  0
 47 62  1  1  0  0  0
 48 49  1  0  0  0  0
 48 60  1  0  0  0  0
 48 61  1  0  0  0  0
 49 50  1  0  0  0  0
 49 59  1  0  0  0  0
 50 51  2  0  0  0  0
 50 55  1  0  0  0  0
 51 52  1  0  0  0  0
 51 58  1  0  0  0  0
 52 53  2  0  0  0  0
 52 57  1  0  0  0  0
 53 54  1  0  0  0  0
 54 55  2  0  0  0  0
 54 56  1  0  0  0  0
M  END
>  <MODEL>
       2

$$$$
best_conformers_3.pdb
 OpenBabel02042510453D

 67 73  0  0  1  0  0  0  0  0999 V2000
    3.6320   -3.9950   25.3260 O   0  0  0  0  0  0  0  0  0  0  0  0
    4.5400   -3.4530   24.7070 C   0  0  0  0  0  0  0  0  0  0  0  0
    5.0380   -2.0800   25.0400 C   0  0  0  0  0  0  0  0  0  0  0  0
    4.4850   -1.4330   26.1460 C   0  0  0  0  0  0  0  0  0  0  0  0
    4.8130   -0.1230   26.4330 C   0  0  0  0  0  0  0  0  0  0  0  0
    5.6930    0.5420   25.5840 C   0  0  0  0  0  0  0  0  0  0  0  0
    6.0760    2.2100   25.9090 Cl  0  0  0  0  0  0  0  0  0  0  0  0
    6.2620   -0.0880   24.4900 C   0  0  0  0  0  0  0  0  0  0  0  0
    5.9740   -1.4320   24.2210 C   0  0  0  0  0  0  0  0  0  0  0  0
    6.5600   -2.1210   22.9850 C   0  0  1  0  0  0  0  0  0  0  0  0
    6.4800   -3.6470   23.2200 C   0  0  0  0  0  0  0  0  0  0  0  0
    5.1470   -4.0420   23.6350 N   0  0  0  0  0  0  0  0  0  0  0  0
    4.5800   -5.2640   23.0950 C   0  0  0  0  0  0  0  0  0  0  0  0
    5.0630   -6.5250   23.7870 C   0  0  0  0  0  0  0  0  0  0  0  0
    4.3620   -7.1070   24.8210 C   0  0  0  0  0  0  0  0  0  0  0  0
    4.9310   -8.2220   25.4330 C   0  0  0  0  0  0  0  0  0  0  0  0
    6.0910   -8.7510   25.0710 N   0  0  0  0  0  0  0  0  0  0  0  0
    6.7630   -8.2190   24.0600 N   0  0  0  0  0  0  0  0  0  0  0  0
    6.2690   -7.1530   23.4420 C   0  0  0  0  0  0  0  0  0  0  0  0
    6.8900   -6.7920   22.6230 H   0  0  0  0  0  0  0  0  0  0  0  0
    4.4480   -8.7240   26.2670 H   0  0  0  0  0  0  0  0  0  0  0  0
    3.4130   -6.6950   25.1670 H   0  0  0  0  0  0  0  0  0  0  0  0
    3.4940   -5.1920   23.1910 H   0  0  0  0  0  0  0  0  0  0  0  0
    4.8290   -5.2910   22.0250 H   0  0  0  0  0  0  0  0  0  0  0  0
    7.2120   -3.9350   23.9910 H   0  0  0  0  0  0  0  0  0  0  0  0
    6.7080   -4.1800   22.2940 H   0  0  0  0  0  0  0  0  0  0  0  0
    5.6900   -1.7420   21.7630 C   0  0  0  0  0  0  0  0  0  0  0  0
    4.5620   -2.1210   21.5340 O   0  0  0  0  0  0  0  0  0  0  0  0
    6.3980   -0.8720   20.9650 N   0  0  0  0  0  0  0  0  0  0  0  0
    5.8040   -0.2070   19.8580 C   0  0  0  0  0  0  0  0  0  0  0  0
    6.2540   -0.4580   18.5870 C   0  0  0  0  0  0  0  0  0  0  0  0
    5.7780    0.1310   17.4610 N   0  0  0  0  0  0  0  0  0  0  0  0
    4.8050    1.0010   17.6060 C   0  0  0  0  0  0  0  0  0  0  0  0
    4.2380    1.3640   18.8610 C   0  0  0  0  0  0  0  0  0  0  0  0
    3.1900    2.3230   18.9560 C   0  0  0  0  0  0  0  0  0  0  0  0
    2.6780    2.6690   20.1750 C   0  0  0  0  0  0  0  0  0  0  0  0
    3.1990    2.0840   21.3530 C   0  0  0  0  0  0  0  0  0  0  0  0
    4.2130    1.1610   21.2900 C   0  0  0  0  0  0  0  0  0  0  0  0
    4.7510    0.7560   20.0320 C   0  0  0  0  0  0  0  0  0  0  0  0
    4.6040    0.7250   22.2090 H   0  0  0  0  0  0  0  0  0  0  0  0
    2.7850    2.3680   22.3160 H   0  0  0  0  0  0  0  0  0  0  0  0
    1.8760    3.4010   20.2490 H   0  0  0  0  0  0  0  0  0  0  0  0
    2.8150    2.7770   18.0410 H   0  0  0  0  0  0  0  0  0  0  0  0
    4.4140    1.4630   16.6990 H   0  0  0  0  0  0  0  0  0  0  0  0
    7.0450   -1.1900   18.4270 H   0  0  0  0  0  0  0  0  0  0  0  0
    7.7560   -0.6210   21.4110 C   0  0  0  0  0  0  0  0  0  0  0  0
    7.9810   -1.5940   22.5950 C   0  0  2  0  0  0  0  0  0  0  0  0
    9.0530   -2.6550   22.2200 C   0  0  0  0  0  0  0  0  0  0  0  0
   10.3610   -2.0850   21.9590 N   0  0  0  0  0  0  0  0  0  0  0  0
   11.2110   -1.6010   22.8980 C   0  0  0  0  0  0  0  0  0  0  0  0
   10.9820   -1.7570   24.2780 C   0  0  0  0  0  0  0  0  0  0  0  0
   11.9200   -1.2050   25.1270 C   0  0  0  0  0  0  0  0  0  0  0  0
   12.9990   -0.5400   24.6900 N   0  0  0  0  0  0  0  0  0  0  0  0
   13.1190   -0.4670   23.3670 C   0  0  0  0  0  0  0  0  0  0  0  0
   12.3020   -0.9620   22.4420 N   0  0  0  0  0  0  0  0  0  0  0  0
   14.0000    0.0700   23.0050 H   0  0  0  0  0  0  0  0  0  0  0  0
   11.8100   -1.2880   26.2120 H   0  0  0  0  0  0  0  0  0  0  0  0
   10.1090   -2.2830   24.6490 H   0  0  0  0  0  0  0  0  0  0  0  0
   10.7030   -2.0080   21.0130 H   0  0  0  0  0  0  0  0  0  0  0  0
    8.7600   -3.1770   21.3050 H   0  0  0  0  0  0  0  0  0  0  0  0
    9.1470   -3.4060   23.0170 H   0  0  0  0  0  0  0  0  0  0  0  0
    8.4040   -1.0640   23.4580 H   0  0  0  0  0  0  0  0  0  0  0  0
    7.8820    0.4270   21.7160 H   0  0  0  0  0  0  0  0  0  0  0  0
    8.4540   -0.7960   20.5840 H   0  0  0  0  0  0  0  0  0  0  0  0
    6.9090    0.5010   23.8480 H   0  0  0  0  0  0  0  0  0  0  0  0
    4.3850    0.3970   27.2830 H   0  0  0  0  0  0  0  0  0  0  0  0
    3.7740   -1.9810   26.7540 H   0  0  0  0  0  0  0  0  0  0  0  0
  1  2  2  0  0  0  0
  2  3  1  0  0  0  0
  2 12  1  0  0  0  0
  3  4  2  0  0  0  0
  3  9  1  0  0  0  0
  4  5  1  0  0  0  0
  4 67  1  0  0  0  0
  5  6  2  0  0  0  0
  5 66  1  0  0  0  0
  6  7  1  0  0  0  0
  6  8  1  0  0  0  0
  8  9  2  0  0  0  0
  8 65  1  0  0  0  0
 10  9  1  1  0  0  0
 10 11  1  0  0  0  0
 10 27  1  0  0  0  0
 10 47  1  0  0  0  0
 11 12  1  0  0  0  0
 11 25  1  0  0  0  0
 11 26  1  0  0  0  0
 12 13  1  0  0  0  0
 13 14  1  0  0  0  0
 13 23  1  0  0  0  0
 13 24  1  0  0  0  0
 14 15  2  0  0  0  0
 14 19  1  0  0  0  0
 15 16  1  0  0  0  0
 15 22  1  0  0  0  0
 16 17  2  0  0  0  0
 16 21  1  0  0  0  0
 17 18  1  0  0  0  0
 18 19  2  0  0  0  0
 19 20  1  0  0  0  0
 27 28  2  0  0  0  0
 27 29  1  0  0  0  0
 29 30  1  0  0  0  0
 29 46  1  0  0  0  0
 30 31  2  0  0  0  0
 30 39  1  0  0  0  0
 31 32  1  0  0  0  0
 31 45  1  0  0  0  0
 32 33  2  0  0  0  0
 33 34  1  0  0  0  0
 33 44  1  0  0  0  0
 34 35  2  0  0  0  0
 34 39  1  0  0  0  0
 35 36  1  0  0  0  0
 35 43  1  0  0  0  0
 36 37  2  0  0  0  0
 36 42  1  0  0  0  0
 37 38  1  0  0  0  0
 37 41  1  0  0  0  0
 38 39  2  0  0  0  0
 38 40  1  0  0  0  0
 46 47  1  0  0  0  0
 46 63  1  0  0  0  0
 46 64  1  0  0  0  0
 47 48  1  0  0  0  0
 47 62  1  1  0  0  0
 48 49  1  0  0  0  0
 48 60  1  0  0  0  0
 48 61  1  0  0  0  0
 49 50  1  0  0  0  0
 49 59  1  0  0  0  0
 50 51  2  0  0  0  0
 50 55  1  0  0  0  0
 51 52  1  0  0  0  0
 51 58  1  0  0  0  0
 52 53  2  0  0  0  0
 52 57  1  0  0  0  0
 53 54  1  0  0  0  0
 54 55  2  0  0  0  0
 54 56  1  0  0  0  0
M  END
>  <MODEL>
       3

$$$$
best_conformers_3.pdb
 OpenBabel02042510453D

 67 73  0  0  1  0  0  0  0  0999 V2000
    3.6510   -4.0200   25.3260 O   0  0  0  0  0  0  0  0  0  0  0  0
    4.5530   -3.4710   24.7050 C   0  0  0  0  0  0  0  0  0  0  0  0
    5.0440   -2.0960   25.0410 C   0  0  0  0  0  0  0  0  0  0  0  0
    4.4920   -1.4530   26.1500 C   0  0  0  0  0  0  0  0  0  0  0  0
    4.8130   -0.1420   26.4390 C   0  0  0  0  0  0  0  0  0  0  0  0
    5.6870    0.5300   25.5890 C   0  0  0  0  0  0  0  0  0  0  0  0
    6.0620    2.1990   25.9160 Cl  0  0  0  0  0  0  0  0  0  0  0  0
    6.2560   -0.0950   24.4930 C   0  0  0  0  0  0  0  0  0  0  0  0
    5.9730   -1.4400   24.2220 C   0  0  0  0  0  0  0  0  0  0  0  0
    6.5590   -2.1230   22.9830 C   0  0  1  0  0  0  0  0  0  0  0  0
    6.4870   -3.6510   23.2130 C   0  0  0  0  0  0  0  0  0  0  0  0
    5.1590   -4.0530   23.6280 N   0  0  0  0  0  0  0  0  0  0  0  0
    4.5960   -5.2750   23.0820 C   0  0  0  0  0  0  0  0  0  0  0  0
    5.0900   -6.5370   23.7640 C   0  0  0  0  0  0  0  0  0  0  0  0
    4.3990   -7.1240   24.8010 C   0  0  0  0  0  0  0  0  0  0  0  0
    4.9760   -8.2400   25.4020 C   0  0  0  0  0  0  0  0  0  0  0  0
    6.1340   -8.7640   25.0280 N   0  0  0  0  0  0  0  0  0  0  0  0
    6.7970   -8.2260   24.0150 N   0  0  0  0  0  0  0  0  0  0  0  0
    6.2950   -7.1590   23.4060 C   0  0  0  0  0  0  0  0  0  0  0  0
    6.9080   -6.7910   22.5830 H   0  0  0  0  0  0  0  0  0  0  0  0
    4.5010   -8.7480   26.2390 H   0  0  0  0  0  0  0  0  0  0  0  0
    3.4520   -6.7160   25.1570 H   0  0  0  0  0  0  0  0  0  0  0  0
    4.8400   -5.2950   22.0110 H   0  0  0  0  0  0  0  0  0  0  0  0
    3.5110   -5.2110   23.1840 H   0  0  0  0  0  0  0  0  0  0  0  0
    7.2230   -3.9400   23.9800 H   0  0  0  0  0  0  0  0  0  0  0  0
    6.7180   -4.1790   22.2850 H   0  0  0  0  0  0  0  0  0  0  0  0
    5.6880   -1.7430   21.7610 C   0  0  0  0  0  0  0  0  0  0  0  0
    4.5620   -2.1240   21.5320 O   0  0  0  0  0  0  0  0  0  0  0  0
    6.3960   -0.8700   20.9650 N   0  0  0  0  0  0  0  0  0  0  0  0
    5.8030   -0.2060   19.8570 C   0  0  0  0  0  0  0  0  0  0  0  0
    6.2530   -0.4570   18.5860 C   0  0  0  0  0  0  0  0  0  0  0  0
    5.7770    0.1320   17.4590 N   0  0  0  0  0  0  0  0  0  0  0  0
    4.8040    1.0020   17.6050 C   0  0  0  0  0  0  0  0  0  0  0  0
    4.2370    1.3650   18.8590 C   0  0  0  0  0  0  0  0  0  0  0  0
    3.1890    2.3240   18.9550 C   0  0  0  0  0  0  0  0  0  0  0  0
    2.6770    2.6690   20.1750 C   0  0  0  0  0  0  0  0  0  0  0  0
    3.1980    2.0830   21.3530 C   0  0  0  0  0  0  0  0  0  0  0  0
    4.2120    1.1610   21.2890 C   0  0  0  0  0  0  0  0  0  0  0  0
    4.7500    0.7570   20.0310 C   0  0  0  0  0  0  0  0  0  0  0  0
    4.6030    0.7240   22.2080 H   0  0  0  0  0  0  0  0  0  0  0  0
    2.7850    2.3670   22.3160 H   0  0  0  0  0  0  0  0  0  0  0  0
    1.8760    3.4010   20.2490 H   0  0  0  0  0  0  0  0  0  0  0  0
    2.8140    2.7790   18.0410 H   0  0  0  0  0  0  0  0  0  0  0  0
    4.4130    1.4640   16.6980 H   0  0  0  0  0  0  0  0  0  0  0  0
    7.0440   -1.1890   18.4260 H   0  0  0  0  0  0  0  0  0  0  0  0
    7.7520   -0.6180   21.4110 C   0  0  0  0  0  0  0  0  0  0  0  0
    7.9760   -1.5930   22.5930 C   0  0  2  0  0  0  0  0  0  0  0  0
    9.0470   -2.6580   22.2310 C   0  0  0  0  0  0  0  0  0  0  0  0
   10.3510   -2.0720   21.9660 N   0  0  0  0  0  0  0  0  0  0  0  0
   11.1960   -1.6040   22.9180 C   0  0  0  0  0  0  0  0  0  0  0  0
   12.4100   -0.9760   22.5510 C   0  0  0  0  0  0  0  0  0  0  0  0
   13.1970   -0.5090   23.5750 C   0  0  0  0  0  0  0  0  0  0  0  0
   12.8670   -0.6390   24.8730 N   0  0  0  0  0  0  0  0  0  0  0  0
   11.7160   -1.2580   25.1000 C   0  0  0  0  0  0  0  0  0  0  0  0
   10.8500   -1.7420   24.2040 N   0  0  0  0  0  0  0  0  0  0  0  0
   11.4350   -1.3830   26.1470 H   0  0  0  0  0  0  0  0  0  0  0  0
   14.1430   -0.0010   23.3810 H   0  0  0  0  0  0  0  0  0  0  0  0
   12.6960   -0.8440   21.5080 H   0  0  0  0  0  0  0  0  0  0  0  0
   10.6870   -2.0430   21.0170 H   0  0  0  0  0  0  0  0  0  0  0  0
    8.7530   -3.1940   21.3250 H   0  0  0  0  0  0  0  0  0  0  0  0
    9.1540   -3.3780   23.0530 H   0  0  0  0  0  0  0  0  0  0  0  0
    8.4080   -1.0760   23.4560 H   0  0  0  0  0  0  0  0  0  0  0  0
    8.4520   -0.7890   20.5860 H   0  0  0  0  0  0  0  0  0  0  0  0
    7.8810    0.4310   21.7190 H   0  0  0  0  0  0  0  0  0  0  0  0
    6.9030    0.4970   23.8520 H   0  0  0  0  0  0  0  0  0  0  0  0
    4.3850    0.3740   27.2910 H   0  0  0  0  0  0  0  0  0  0  0  0
    3.7850   -2.0050   26.7600 H   0  0  0  0  0  0  0  0  0  0  0  0
  1  2  2  0  0  0  0
  2  3  1  0  0  0  0
  2 12  1  0  0  0  0
  3  4  2  0  0  0  0
  3  9  1  0  0  0  0
  4  5  1  0  0  0  0
  4 67  1  0  0  0  0
  5  6  2  0  0  0  0
  5 66  1  0  0  0  0
  6  7  1  0  0  0  0
  6  8  1  0  0  0  0
  8  9  2  0  0  0  0
  8 65  1  0  0  0  0
 10  9  1  1  0  0  0
 10 11  1  0  0  0  0
 10 27  1  0  0  0  0
 10 47  1  0  0  0  0
 11 12  1  0  0  0  0
 11 25  1  0  0  0  0
 11 26  1  0  0  0  0
 12 13  1  0  0  0  0
 13 14  1  0  0  0  0
 13 23  1  0  0  0  0
 13 24  1  0  0  0  0
 14 15  2  0  0  0  0
 14 19  1  0  0  0  0
 15 16  1  0  0  0  0
 15 22  1  0  0  0  0
 16 17  2  0  0  0  0
 16 21  1  0  0  0  0
 17 18  1  0  0  0  0
 18 19  2  0  0  0  0
 19 20  1  0  0  0  0
 27 28  2  0  0  0  0
 27 29  1  0  0  0  0
 29 30  1  0  0  0  0
 29 46  1  0  0  0  0
 30 31  2  0  0  0  0
 30 39  1  0  0  0  0
 31 32  1  0  0  0  0
 31 45  1  0  0  0  0
 32 33  2  0  0  0  0
 33 34  1  0  0  0  0
 33 44  1  0  0  0  0
 34 35  2  0  0  0  0
 34 39  1  0  0  0  0
 35 36  1  0  0  0  0
 35 43  1  0  0  0  0
 36 37  2  0  0  0  0
 36 42  1  0  0  0  0
 37 38  1  0  0  0  0
 37 41  1  0  0  0  0
 38 39  2  0  0  0  0
 38 40  1  0  0  0  0
 46 47  1  0  0  0  0
 46 63  1  0  0  0  0
 46 64  1  0  0  0  0
 47 48  1  0  0  0  0
 47 62  1  1  0  0  0
 48 49  1  0  0  0  0
 48 60  1  0  0  0  0
 48 61  1  0  0  0  0
 49 50  1  0  0  0  0
 49 59  1  0  0  0  0
 50 51  2  0  0  0  0
 50 55  1  0  0  0  0
 51 52  1  0  0  0  0
 51 58  1  0  0  0  0
 52 53  2  0  0  0  0
 52 57  1  0  0  0  0
 53 54  1  0  0  0  0
 54 55  2  0  0  0  0
 54 56  1  0  0  0  0
M  END
>  <MODEL>
       4

$$$$
best_conformers_3.pdb
 OpenBabel02042510453D

 67 73  0  0  1  0  0  0  0  0999 V2000
    3.5400   -3.8890   25.3040 O   0  0  0  0  0  0  0  0  0  0  0  0
    4.4690   -3.3640   24.7000 C   0  0  0  0  0  0  0  0  0  0  0  0
    4.9720   -1.9870   25.0170 C   0  0  0  0  0  0  0  0  0  0  0  0
    4.4000   -1.3160   26.0980 C   0  0  0  0  0  0  0  0  0  0  0  0
    4.7480   -0.0100   26.3810 C   0  0  0  0  0  0  0  0  0  0  0  0
    5.6720    0.6260   25.5560 C   0  0  0  0  0  0  0  0  0  0  0  0
    6.0830    2.2880   25.8790 Cl  0  0  0  0  0  0  0  0  0  0  0  0
    6.2610   -0.0280   24.4870 C   0  0  0  0  0  0  0  0  0  0  0  0
    5.9440   -1.3660   24.2190 C   0  0  0  0  0  0  0  0  0  0  0  0
    6.5420   -2.0840   23.0050 C   0  0  1  0  0  0  0  0  0  0  0  0
    6.4520   -3.6020   23.2860 C   0  0  0  0  0  0  0  0  0  0  0  0
    5.1040   -3.9830   23.6640 N   0  0  0  0  0  0  0  0  0  0  0  0
    4.5870   -5.2470   23.1780 C   0  0  0  0  0  0  0  0  0  0  0  0
    5.1410   -6.4570   23.9100 C   0  0  0  0  0  0  0  0  0  0  0  0
    6.3510   -7.0280   23.5850 C   0  0  0  0  0  0  0  0  0  0  0  0
    6.7860   -8.0930   24.3710 C   0  0  0  0  0  0  0  0  0  0  0  0
    6.1000   -8.5900   25.3910 N   0  0  0  0  0  0  0  0  0  0  0  0
    4.9240   -8.0650   25.7010 N   0  0  0  0  0  0  0  0  0  0  0  0
    4.4630   -7.0420   24.9890 C   0  0  0  0  0  0  0  0  0  0  0  0
    3.4950   -6.6660   25.3140 H   0  0  0  0  0  0  0  0  0  0  0  0
    7.7430   -8.5730   24.1820 H   0  0  0  0  0  0  0  0  0  0  0  0
    6.9550   -6.6670   22.7500 H   0  0  0  0  0  0  0  0  0  0  0  0
    3.4990   -5.2160   23.2680 H   0  0  0  0  0  0  0  0  0  0  0  0
    4.8470   -5.3060   22.1130 H   0  0  0  0  0  0  0  0  0  0  0  0
    7.1540   -3.8610   24.0900 H   0  0  0  0  0  0  0  0  0  0  0  0
    6.7090   -4.1590   22.3840 H   0  0  0  0  0  0  0  0  0  0  0  0
    5.6900   -1.7370   21.7620 C   0  0  0  0  0  0  0  0  0  0  0  0
    4.5680   -2.1250   21.5210 O   0  0  0  0  0  0  0  0  0  0  0  0
    6.4050   -0.8780   20.9580 N   0  0  0  0  0  0  0  0  0  0  0  0
    5.8060   -0.2070   19.8550 C   0  0  0  0  0  0  0  0  0  0  0  0
    6.2540   -0.4570   18.5840 C   0  0  0  0  0  0  0  0  0  0  0  0
    5.7780    0.1330   17.4580 N   0  0  0  0  0  0  0  0  0  0  0  0
    4.8040    1.0020   17.6050 C   0  0  0  0  0  0  0  0  0  0  0  0
    4.2380    1.3640   18.8600 C   0  0  0  0  0  0  0  0  0  0  0  0
    3.1900    2.3230   18.9560 C   0  0  0  0  0  0  0  0  0  0  0  0
    2.6780    2.6700   20.1750 C   0  0  0  0  0  0  0  0  0  0  0  0
    3.1990    2.0840   21.3520 C   0  0  0  0  0  0  0  0  0  0  0  0
    4.2130    1.1610   21.2890 C   0  0  0  0  0  0  0  0  0  0  0  0
    4.7520    0.7560   20.0320 C   0  0  0  0  0  0  0  0  0  0  0  0
    4.6020    0.7240   22.2090 H   0  0  0  0  0  0  0  0  0  0  0  0
    2.7840    2.3690   22.3160 H   0  0  0  0  0  0  0  0  0  0  0  0
    1.8760    3.4010   20.2490 H   0  0  0  0  0  0  0  0  0  0  0  0
    2.8150    2.7780   18.0400 H   0  0  0  0  0  0  0  0  0  0  0  0
    4.4130    1.4640   16.6980 H   0  0  0  0  0  0  0  0  0  0  0  0
    7.0460   -1.1880   18.4270 H   0  0  0  0  0  0  0  0  0  0  0  0
    7.7500   -0.6010   21.4320 C   0  0  0  0  0  0  0  0  0  0  0  0
    7.9720   -1.5710   22.6200 C   0  0  2  0  0  0  0  0  0  0  0  0
    9.0410   -2.6390   22.2480 C   0  0  0  0  0  0  0  0  0  0  0  0
    9.5280   -3.4490   23.3460 N   0  0  0  0  0  0  0  0  0  0  0  0
   10.2640   -2.9990   24.3910 C   0  0  0  0  0  0  0  0  0  0  0  0
   10.8920   -1.7420   24.3820 C   0  0  0  0  0  0  0  0  0  0  0  0
   11.5960   -1.3990   25.5190 C   0  0  0  0  0  0  0  0  0  0  0  0
   11.6810   -2.1980   26.5920 N   0  0  0  0  0  0  0  0  0  0  0  0
   11.0640   -3.3700   26.4800 C   0  0  0  0  0  0  0  0  0  0  0  0
   10.3800   -3.8330   25.4380 N   0  0  0  0  0  0  0  0  0  0  0  0
   11.1310   -4.0260   27.3520 H   0  0  0  0  0  0  0  0  0  0  0  0
   12.1160   -0.4400   25.5880 H   0  0  0  0  0  0  0  0  0  0  0  0
   10.8260   -1.0850   23.5190 H   0  0  0  0  0  0  0  0  0  0  0  0
    9.3200   -4.4340   23.3890 H   0  0  0  0  0  0  0  0  0  0  0  0
    8.6400   -3.3280   21.5000 H   0  0  0  0  0  0  0  0  0  0  0  0
    9.9020   -2.1270   21.7860 H   0  0  0  0  0  0  0  0  0  0  0  0
    8.3870   -1.0400   23.4860 H   0  0  0  0  0  0  0  0  0  0  0  0
    7.8410    0.4480   21.7460 H   0  0  0  0  0  0  0  0  0  0  0  0
    8.4710   -0.7520   20.6200 H   0  0  0  0  0  0  0  0  0  0  0  0
    6.9480    0.5370   23.8640 H   0  0  0  0  0  0  0  0  0  0  0  0
    4.3050    0.5280   27.2110 H   0  0  0  0  0  0  0  0  0  0  0  0
    3.6600   -1.8440   26.6880 H   0  0  0  0  0  0  0  0  0  0  0  0
  1  2  2  0  0  0  0
  2  3  1  0  0  0  0
  2 12  1  0  0  0  0
  3  4  2  0  0  0  0
  3  9  1  0  0  0  0
  4  5  1  0  0  0  0
  4 67  1  0  0  0  0
  5  6  2  0  0  0  0
  5 66  1  0  0  0  0
  6  7  1  0  0  0  0
  6  8  1  0  0  0  0
  8  9  2  0  0  0  0
  8 65  1  0  0  0  0
 10  9  1  1  0  0  0
 10 11  1  0  0  0  0
 10 27  1  0  0  0  0
 10 47  1  0  0  0  0
 11 12  1  0  0  0  0
 11 25  1  0  0  0  0
 11 26  1  0  0  0  0
 12 13  1  0  0  0  0
 13 14  1  0  0  0  0
 13 23  1  0  0  0  0
 13 24  1  0  0  0  0
 14 15  2  0  0  0  0
 14 19  1  0  0  0  0
 15 16  1  0  0  0  0
 15 22  1  0  0  0  0
 16 17  2  0  0  0  0
 16 21  1  0  0  0  0
 17 18  1  0  0  0  0
 18 19  2  0  0  0  0
 19 20  1  0  0  0  0
 27 28  2  0  0  0  0
 27 29  1  0  0  0  0
 29 30  1  0  0  0  0
 29 46  1  0  0  0  0
 30 31  2  0  0  0  0
 30 39  1  0  0  0  0
 31 32  1  0  0  0  0
 31 45  1  0  0  0  0
 32 33  2  0  0  0  0
 33 34  1  0  0  0  0
 33 44  1  0  0  0  0
 34 35  2  0  0  0  0
 34 39  1  0  0  0  0
 35 36  1  0  0  0  0
 35 43  1  0  0  0  0
 36 37  2  0  0  0  0
 36 42  1  0  0  0  0
 37 38  1  0  0  0  0
 37 41  1  0  0  0  0
 38 39  2  0  0  0  0
 38 40  1  0  0  0  0
 46 47  1  0  0  0  0
 46 63  1  0  0  0  0
 46 64  1  0  0  0  0
 47 48  1  0  0  0  0
 47 62  1  1  0  0  0
 48 49  1  0  0  0  0
 48 60  1  0  0  0  0
 48 61  1  0  0  0  0
 49 50  1  0  0  0  0
 49 59  1  0  0  0  0
 50 51  2  0  0  0  0
 50 55  1  0  0  0  0
 51 52  1  0  0  0  0
 51 58  1  0  0  0  0
 52 53  2  0  0  0  0
 52 57  1  0  0  0  0
 53 54  1  0  0  0  0
 54 55  2  0  0  0  0
 54 56  1  0  0  0  0
M  END
>  <MODEL>
       5

$$$$
best_conformers_3.pdb
 OpenBabel02042510453D

 67 73  0  0  1  0  0  0  0  0999 V2000
    3.5400   -3.8990   25.2910 O   0  0  0  0  0  0  0  0  0  0  0  0
    4.4740   -3.3790   24.6910 C   0  0  0  0  0  0  0  0  0  0  0  0
    4.9780   -2.0050   25.0150 C   0  0  0  0  0  0  0  0  0  0  0  0
    4.4070   -1.3400   26.1000 C   0  0  0  0  0  0  0  0  0  0  0  0
    4.7520   -0.0340   26.3880 C   0  0  0  0  0  0  0  0  0  0  0  0
    5.6720    0.6070   25.5620 C   0  0  0  0  0  0  0  0  0  0  0  0
    6.0790    2.2680   25.8910 Cl  0  0  0  0  0  0  0  0  0  0  0  0
    6.2610   -0.0420   24.4900 C   0  0  0  0  0  0  0  0  0  0  0  0
    5.9480   -1.3800   24.2170 C   0  0  0  0  0  0  0  0  0  0  0  0
    6.5460   -2.0940   23.0000 C   0  0  1  0  0  0  0  0  0  0  0  0
    6.4580   -3.6140   23.2770 C   0  0  0  0  0  0  0  0  0  0  0  0
    5.1110   -3.9960   23.6550 N   0  0  0  0  0  0  0  0  0  0  0  0
    4.5850   -5.2500   23.1520 C   0  0  0  0  0  0  0  0  0  0  0  0
    5.0830   -6.4710   23.9060 C   0  0  0  0  0  0  0  0  0  0  0  0
    4.3780   -7.0170   24.9560 C   0  0  0  0  0  0  0  0  0  0  0  0
    4.9530   -8.0980   25.6210 C   0  0  0  0  0  0  0  0  0  0  0  0
    6.1220   -8.6310   25.2900 N   0  0  0  0  0  0  0  0  0  0  0  0
    6.8010   -8.1290   24.2700 N   0  0  0  0  0  0  0  0  0  0  0  0
    6.3040   -7.0910   23.6040 C   0  0  0  0  0  0  0  0  0  0  0  0
    6.9320   -6.7590   22.7780 H   0  0  0  0  0  0  0  0  0  0  0  0
    4.4680   -8.5680   26.4740 H   0  0  0  0  0  0  0  0  0  0  0  0
    3.4170   -6.6060   25.2690 H   0  0  0  0  0  0  0  0  0  0  0  0
    4.8630   -5.3130   22.0910 H   0  0  0  0  0  0  0  0  0  0  0  0
    3.4960   -5.1980   23.2190 H   0  0  0  0  0  0  0  0  0  0  0  0
    6.7130   -4.1750   22.3760 H   0  0  0  0  0  0  0  0  0  0  0  0
    7.1600   -3.8750   24.0800 H   0  0  0  0  0  0  0  0  0  0  0  0
    5.6920   -1.7420   21.7600 C   0  0  0  0  0  0  0  0  0  0  0  0
    4.5700   -2.1290   21.5200 O   0  0  0  0  0  0  0  0  0  0  0  0
    6.4050   -0.8780   20.9580 N   0  0  0  0  0  0  0  0  0  0  0  0
    5.8060   -0.2070   19.8550 C   0  0  0  0  0  0  0  0  0  0  0  0
    6.2540   -0.4570   18.5840 C   0  0  0  0  0  0  0  0  0  0  0  0
    5.7780    0.1330   17.4580 N   0  0  0  0  0  0  0  0  0  0  0  0
    4.8040    1.0020   17.6050 C   0  0  0  0  0  0  0  0  0  0  0  0
    4.2380    1.3640   18.8600 C   0  0  0  0  0  0  0  0  0  0  0  0
    3.1900    2.3230   18.9560 C   0  0  0  0  0  0  0  0  0  0  0  0
    2.6770    2.6690   20.1750 C   0  0  0  0  0  0  0  0  0  0  0  0
    3.1980    2.0830   21.3520 C   0  0  0  0  0  0  0  0  0  0  0  0
    4.2120    1.1600   21.2890 C   0  0  0  0  0  0  0  0  0  0  0  0
    4.7520    0.7560   20.0310 C   0  0  0  0  0  0  0  0  0  0  0  0
    4.6020    0.7230   22.2090 H   0  0  0  0  0  0  0  0  0  0  0  0
    2.7840    2.3670   22.3160 H   0  0  0  0  0  0  0  0  0  0  0  0
    1.8760    3.4010   20.2490 H   0  0  0  0  0  0  0  0  0  0  0  0
    2.8140    2.7780   18.0400 H   0  0  0  0  0  0  0  0  0  0  0  0
    4.4120    1.4640   16.6970 H   0  0  0  0  0  0  0  0  0  0  0  0
    7.0450   -1.1870   18.4260 H   0  0  0  0  0  0  0  0  0  0  0  0
    7.7500   -0.6020   21.4320 C   0  0  0  0  0  0  0  0  0  0  0  0
    7.9740   -1.5750   22.6170 C   0  0  2  0  0  0  0  0  0  0  0  0
    9.0450   -2.6390   22.2420 C   0  0  0  0  0  0  0  0  0  0  0  0
    9.5330   -3.4510   23.3380 N   0  0  0  0  0  0  0  0  0  0  0  0
   10.2700   -3.0020   24.3830 C   0  0  0  0  0  0  0  0  0  0  0  0
   10.8940   -1.7430   24.3770 C   0  0  0  0  0  0  0  0  0  0  0  0
   11.5980   -1.4010   25.5150 C   0  0  0  0  0  0  0  0  0  0  0  0
   11.6870   -2.2030   26.5850 N   0  0  0  0  0  0  0  0  0  0  0  0
   11.0740   -3.3770   26.4700 C   0  0  0  0  0  0  0  0  0  0  0  0
   10.3890   -3.8380   25.4270 N   0  0  0  0  0  0  0  0  0  0  0  0
   11.1440   -4.0350   27.3400 H   0  0  0  0  0  0  0  0  0  0  0  0
   12.1160   -0.4410   25.5850 H   0  0  0  0  0  0  0  0  0  0  0  0
   10.8250   -1.0840   23.5170 H   0  0  0  0  0  0  0  0  0  0  0  0
    9.3320   -4.4380   23.3770 H   0  0  0  0  0  0  0  0  0  0  0  0
    9.9050   -2.1250   21.7810 H   0  0  0  0  0  0  0  0  0  0  0  0
    8.6450   -3.3260   21.4910 H   0  0  0  0  0  0  0  0  0  0  0  0
    8.3870   -1.0460   23.4840 H   0  0  0  0  0  0  0  0  0  0  0  0
    7.8400    0.4470   21.7490 H   0  0  0  0  0  0  0  0  0  0  0  0
    8.4700   -0.7490   20.6190 H   0  0  0  0  0  0  0  0  0  0  0  0
    6.9440    0.5280   23.8680 H   0  0  0  0  0  0  0  0  0  0  0  0
    4.3100    0.4990   27.2210 H   0  0  0  0  0  0  0  0  0  0  0  0
    3.6690   -1.8720   26.6900 H   0  0  0  0  0  0  0  0  0  0  0  0
  1  2  2  0  0  0  0
  2  3  1  0  0  0  0
  2 12  1  0  0  0  0
  3  4  2  0  0  0  0
  3  9  1  0  0  0  0
  4  5  1  0  0  0  0
  4 67  1  0  0  0  0
  5  6  2  0  0  0  0
  5 66  1  0  0  0  0
  6  7  1  0  0  0  0
  6  8  1  0  0  0  0
  8  9  2  0  0  0  0
  8 65  1  0  0  0  0
 10  9  1  1  0  0  0
 10 11  1  0  0  0  0
 10 27  1  0  0  0  0
 10 47  1  0  0  0  0
 11 12  1  0  0  0  0
 11 25  1  0  0  0  0
 11 26  1  0  0  0  0
 12 13  1  0  0  0  0
 13 14  1  0  0  0  0
 13 23  1  0  0  0  0
 13 24  1  0  0  0  0
 14 15  2  0  0  0  0
 14 19  1  0  0  0  0
 15 16  1  0  0  0  0
 15 22  1  0  0  0  0
 16 17  2  0  0  0  0
 16 21  1  0  0  0  0
 17 18  1  0  0  0  0
 18 19  2  0  0  0  0
 19 20  1  0  0  0  0
 27 28  2  0  0  0  0
 27 29  1  0  0  0  0
 29 30  1  0  0  0  0
 29 46  1  0  0  0  0
 30 31  2  0  0  0  0
 30 39  1  0  0  0  0
 31 32  1  0  0  0  0
 31 45  1  0  0  0  0
 32 33  2  0  0  0  0
 33 34  1  0  0  0  0
 33 44  1  0  0  0  0
 34 35  2  0  0  0  0
 34 39  1  0  0  0  0
 35 36  1  0  0  0  0
 35 43  1  0  0  0  0
 36 37  2  0  0  0  0
 36 42  1  0  0  0  0
 37 38  1  0  0  0  0
 37 41  1  0  0  0  0
 38 39  2  0  0  0  0
 38 40  1  0  0  0  0
 46 47  1  0  0  0  0
 46 63  1  0  0  0  0
 46 64  1  0  0  0  0
 47 48  1  0  0  0  0
 47 62  1  1  0  0  0
 48 49  1  0  0  0  0
 48 60  1  0  0  0  0
 48 61  1  0  0  0  0
 49 50  1  0  0  0  0
 49 59  1  0  0  0  0
 50 51  2  0  0  0  0
 50 55  1  0  0  0  0
 51 52  1  0  0  0  0
 51 58  1  0  0  0  0
 52 53  2  0  0  0  0
 52 57  1  0  0  0  0
 53 54  1  0  0  0  0
 54 55  2  0  0  0  0
 54 56  1  0  0  0  0
M  END
>  <MODEL>
       6

$$$$
best_conformers_3.pdb
 OpenBabel02042510453D

 67 73  0  0  1  0  0  0  0  0999 V2000
    3.5240   -3.8920   25.2820 O   0  0  0  0  0  0  0  0  0  0  0  0
    4.4620   -3.3760   24.6860 C   0  0  0  0  0  0  0  0  0  0  0  0
    4.9670   -2.0020   25.0110 C   0  0  0  0  0  0  0  0  0  0  0  0
    4.3920   -1.3330   26.0930 C   0  0  0  0  0  0  0  0  0  0  0  0
    4.7410   -0.0290   26.3830 C   0  0  0  0  0  0  0  0  0  0  0  0
    5.6670    0.6090   25.5620 C   0  0  0  0  0  0  0  0  0  0  0  0
    6.0790    2.2690   25.8930 Cl  0  0  0  0  0  0  0  0  0  0  0  0
    6.2580   -0.0410   24.4920 C   0  0  0  0  0  0  0  0  0  0  0  0
    5.9430   -1.3790   24.2180 C   0  0  0  0  0  0  0  0  0  0  0  0
    6.5430   -2.0930   23.0010 C   0  0  1  0  0  0  0  0  0  0  0  0
    6.4540   -3.6140   23.2810 C   0  0  0  0  0  0  0  0  0  0  0  0
    5.1050   -3.9970   23.6540 N   0  0  0  0  0  0  0  0  0  0  0  0
    4.5860   -5.2580   23.1590 C   0  0  0  0  0  0  0  0  0  0  0  0
    5.0930   -6.4690   23.9220 C   0  0  0  0  0  0  0  0  0  0  0  0
    4.3950   -7.0080   24.9800 C   0  0  0  0  0  0  0  0  0  0  0  0
    4.9790   -8.0780   25.6550 C   0  0  0  0  0  0  0  0  0  0  0  0
    6.1490   -8.6070   25.3240 N   0  0  0  0  0  0  0  0  0  0  0  0
    6.8220   -8.1120   24.2970 N   0  0  0  0  0  0  0  0  0  0  0  0
    6.3160   -7.0850   23.6210 C   0  0  0  0  0  0  0  0  0  0  0  0
    6.9390   -6.7550   22.7910 H   0  0  0  0  0  0  0  0  0  0  0  0
    4.5000   -8.5410   26.5140 H   0  0  0  0  0  0  0  0  0  0  0  0
    3.4340   -6.5990   25.2930 H   0  0  0  0  0  0  0  0  0  0  0  0
    4.8630   -5.3300   22.0990 H   0  0  0  0  0  0  0  0  0  0  0  0
    3.4970   -5.2150   23.2260 H   0  0  0  0  0  0  0  0  0  0  0  0
    6.7120   -4.1760   22.3810 H   0  0  0  0  0  0  0  0  0  0  0  0
    7.1540   -3.8760   24.0860 H   0  0  0  0  0  0  0  0  0  0  0  0
    5.6870   -1.7410   21.7600 C   0  0  0  0  0  0  0  0  0  0  0  0
    4.5650   -2.1280   21.5220 O   0  0  0  0  0  0  0  0  0  0  0  0
    6.4000   -0.8780   20.9570 N   0  0  0  0  0  0  0  0  0  0  0  0
    5.8020   -0.2070   19.8530 C   0  0  0  0  0  0  0  0  0  0  0  0
    6.2520   -0.4560   18.5830 C   0  0  0  0  0  0  0  0  0  0  0  0
    5.7760    0.1340   17.4570 N   0  0  0  0  0  0  0  0  0  0  0  0
    4.8030    1.0030   17.6030 C   0  0  0  0  0  0  0  0  0  0  0  0
    4.2370    1.3660   18.8590 C   0  0  0  0  0  0  0  0  0  0  0  0
    3.1890    2.3240   18.9550 C   0  0  0  0  0  0  0  0  0  0  0  0
    2.6770    2.6690   20.1740 C   0  0  0  0  0  0  0  0  0  0  0  0
    3.1980    2.0830   21.3520 C   0  0  0  0  0  0  0  0  0  0  0  0
    4.2120    1.1600   21.2880 C   0  0  0  0  0  0  0  0  0  0  0  0
    4.7500    0.7570   20.0300 C   0  0  0  0  0  0  0  0  0  0  0  0
    4.6030    0.7220   22.2070 H   0  0  0  0  0  0  0  0  0  0  0  0
    2.7840    2.3670   22.3160 H   0  0  0  0  0  0  0  0  0  0  0  0
    1.8760    3.4010   20.2500 H   0  0  0  0  0  0  0  0  0  0  0  0
    2.8130    2.7790   18.0400 H   0  0  0  0  0  0  0  0  0  0  0  0
    4.4120    1.4660   16.6960 H   0  0  0  0  0  0  0  0  0  0  0  0
    7.0440   -1.1880   18.4260 H   0  0  0  0  0  0  0  0  0  0  0  0
    7.7410   -0.5970   21.4310 C   0  0  0  0  0  0  0  0  0  0  0  0
    7.9680   -1.5730   22.6100 C   0  0  2  0  0  0  0  0  0  0  0  0
    9.0420   -2.6260   22.2180 C   0  0  0  0  0  0  0  0  0  0  0  0
    9.5260   -3.4460   23.3160 N   0  0  0  0  0  0  0  0  0  0  0  0
   10.2920   -2.9960   24.3400 C   0  0  0  0  0  0  0  0  0  0  0  0
   10.5780   -3.8420   25.4380 C   0  0  0  0  0  0  0  0  0  0  0  0
   11.3430   -3.3040   26.4450 C   0  0  0  0  0  0  0  0  0  0  0  0
   11.8230   -2.0470   26.4080 N   0  0  0  0  0  0  0  0  0  0  0  0
   11.5040   -1.3540   25.3250 C   0  0  0  0  0  0  0  0  0  0  0  0
   10.7540   -1.7420   24.2880 N   0  0  0  0  0  0  0  0  0  0  0  0
   11.8940   -0.3350   25.2730 H   0  0  0  0  0  0  0  0  0  0  0  0
   11.6000   -3.8790   27.3370 H   0  0  0  0  0  0  0  0  0  0  0  0
   10.1900   -4.8580   25.5060 H   0  0  0  0  0  0  0  0  0  0  0  0
    9.3250   -4.4310   23.3210 H   0  0  0  0  0  0  0  0  0  0  0  0
    8.6410   -3.3030   21.4580 H   0  0  0  0  0  0  0  0  0  0  0  0
    9.9030   -2.0920   21.7880 H   0  0  0  0  0  0  0  0  0  0  0  0
    8.4110   -1.0570   23.4660 H   0  0  0  0  0  0  0  0  0  0  0  0
    7.8340    0.4510   21.7520 H   0  0  0  0  0  0  0  0  0  0  0  0
    8.4660   -0.7430   20.6210 H   0  0  0  0  0  0  0  0  0  0  0  0
    6.9510    0.5240   23.8760 H   0  0  0  0  0  0  0  0  0  0  0  0
    4.2960    0.5060   27.2140 H   0  0  0  0  0  0  0  0  0  0  0  0
    3.6490   -1.8600   26.6800 H   0  0  0  0  0  0  0  0  0  0  0  0
  1  2  2  0  0  0  0
  2  3  1  0  0  0  0
  2 12  1  0  0  0  0
  3  4  2  0  0  0  0
  3  9  1  0  0  0  0
  4  5  1  0  0  0  0
  4 67  1  0  0  0  0
  5  6  2  0  0  0  0
  5 66  1  0  0  0  0
  6  7  1  0  0  0  0
  6  8  1  0  0  0  0
  8  9  2  0  0  0  0
  8 65  1  0  0  0  0
 10  9  1  1  0  0  0
 10 11  1  0  0  0  0
 10 27  1  0  0  0  0
 10 47  1  0  0  0  0
 11 12  1  0  0  0  0
 11 25  1  0  0  0  0
 11 26  1  0  0  0  0
 12 13  1  0  0  0  0
 13 14  1  0  0  0  0
 13 23  1  0  0  0  0
 13 24  1  0  0  0  0
 14 15  2  0  0  0  0
 14 19  1  0  0  0  0
 15 16  1  0  0  0  0
 15 22  1  0  0  0  0
 16 17  2  0  0  0  0
 16 21  1  0  0  0  0
 17 18  1  0  0  0  0
 18 19  2  0  0  0  0
 19 20  1  0  0  0  0
 27 28  2  0  0  0  0
 27 29  1  0  0  0  0
 29 30  1  0  0  0  0
 29 46  1  0  0  0  0
 30 31  2  0  0  0  0
 30 39  1  0  0  0  0
 31 32  1  0  0  0  0
 31 45  1  0  0  0  0
 32 33  2  0  0  0  0
 33 34  1  0  0  0  0
 33 44  1  0  0  0  0
 34 35  2  0  0  0  0
 34 39  1  0  0  0  0
 35 36  1  0  0  0  0
 35 43  1  0  0  0  0
 36 37  2  0  0  0  0
 36 42  1  0  0  0  0
 37 38  1  0  0  0  0
 37 41  1  0  0  0  0
 38 39  2  0  0  0  0
 38 40  1  0  0  0  0
 46 47  1  0  0  0  0
 46 63  1  0  0  0  0
 46 64  1  0  0  0  0
 47 48  1  0  0  0  0
 47 62  1  1  0  0  0
 48 49  1  0  0  0  0
 48 60  1  0  0  0  0
 48 61  1  0  0  0  0
 49 50  1  0  0  0  0
 49 59  1  0  0  0  0
 50 51  2  0  0  0  0
 50 55  1  0  0  0  0
 51 52  1  0  0  0  0
 51 58  1  0  0  0  0
 52 53  2  0  0  0  0
 52 57  1  0  0  0  0
 53 54  1  0  0  0  0
 54 55  2  0  0  0  0
 54 56  1  0  0  0  0
M  END
>  <MODEL>
       7

$$$$
best_conformers_3.pdb
 OpenBabel02042510453D

 67 73  0  0  1  0  0  0  0  0999 V2000
    8.6390   -1.9370   26.9610 O   0  0  0  0  0  0  0  0  0  0  0  0
    8.3030   -1.5140   25.8640 C   0  0  0  0  0  0  0  0  0  0  0  0
    9.3040   -1.0200   24.8760 C   0  0  0  0  0  0  0  0  0  0  0  0
   10.6250   -0.8580   25.2930 C   0  0  0  0  0  0  0  0  0  0  0  0
   11.6060   -0.5120   24.3810 C   0  0  0  0  0  0  0  0  0  0  0  0
   11.2500   -0.3460   23.0430 C   0  0  0  0  0  0  0  0  0  0  0  0
   12.4900    0.0720   21.8980 Cl  0  0  0  0  0  0  0  0  0  0  0  0
    9.9430   -0.5040   22.6150 C   0  0  0  0  0  0  0  0  0  0  0  0
    8.9440   -0.8260   23.5410 C   0  0  0  0  0  0  0  0  0  0  0  0
    7.5230   -1.0710   23.0750 C   0  0  1  0  0  0  0  0  0  0  0  0
    6.5760   -0.8220   24.2720 C   0  0  0  0  0  0  0  0  0  0  0  0
    7.0060   -1.5360   25.4530 N   0  0  0  0  0  0  0  0  0  0  0  0
    6.0140   -2.0550   26.3770 C   0  0  0  0  0  0  0  0  0  0  0  0
    5.5070   -1.0370   27.3740 C   0  0  0  0  0  0  0  0  0  0  0  0
    4.5740   -0.0830   27.0330 C   0  0  0  0  0  0  0  0  0  0  0  0
    4.2040    0.8350   28.0180 C   0  0  0  0  0  0  0  0  0  0  0  0
    4.6910    0.8300   29.2520 N   0  0  0  0  0  0  0  0  0  0  0  0
    5.5700   -0.1000   29.5980 N   0  0  0  0  0  0  0  0  0  0  0  0
    5.9620   -0.9970   28.6990 C   0  0  0  0  0  0  0  0  0  0  0  0
    6.6810   -1.7240   29.0730 H   0  0  0  0  0  0  0  0  0  0  0  0
    3.4870    1.6250   27.8140 H   0  0  0  0  0  0  0  0  0  0  0  0
    4.1320   -0.0440   26.0370 H   0  0  0  0  0  0  0  0  0  0  0  0
    5.1800   -2.4210   25.7690 H   0  0  0  0  0  0  0  0  0  0  0  0
    6.4740   -2.8880   26.9110 H   0  0  0  0  0  0  0  0  0  0  0  0
    5.5610   -1.1500   24.0120 H   0  0  0  0  0  0  0  0  0  0  0  0
    6.5600    0.2630   24.4500 H   0  0  0  0  0  0  0  0  0  0  0  0
    7.1020   -0.0900   21.9700 C   0  0  0  0  0  0  0  0  0  0  0  0
    7.2610    1.1170   21.9680 O   0  0  0  0  0  0  0  0  0  0  0  0
    6.4550   -0.7910   20.9830 N   0  0  0  0  0  0  0  0  0  0  0  0
    5.8470   -0.1570   19.8720 C   0  0  0  0  0  0  0  0  0  0  0  0
    6.2650   -0.4600   18.5980 C   0  0  0  0  0  0  0  0  0  0  0  0
    5.7780    0.1120   17.4700 N   0  0  0  0  0  0  0  0  0  0  0  0
    4.8120    0.9910   17.6130 C   0  0  0  0  0  0  0  0  0  0  0  0
    4.2470    1.3610   18.8680 C   0  0  0  0  0  0  0  0  0  0  0  0
    3.1850    2.3060   18.9550 C   0  0  0  0  0  0  0  0  0  0  0  0
    2.6330    2.6210   20.1670 C   0  0  0  0  0  0  0  0  0  0  0  0
    3.1130    1.9990   21.3420 C   0  0  0  0  0  0  0  0  0  0  0  0
    4.1400    1.0910   21.2810 C   0  0  0  0  0  0  0  0  0  0  0  0
    4.7580    0.7640   20.0390 C   0  0  0  0  0  0  0  0  0  0  0  0
    4.4970    0.6250   22.1920 H   0  0  0  0  0  0  0  0  0  0  0  0
    2.6740    2.2510   22.3010 H   0  0  0  0  0  0  0  0  0  0  0  0
    1.8310    3.3520   20.2350 H   0  0  0  0  0  0  0  0  0  0  0  0
    2.8290    2.7730   18.0400 H   0  0  0  0  0  0  0  0  0  0  0  0
    4.4230    1.4530   16.7040 H   0  0  0  0  0  0  0  0  0  0  0  0
    7.0530   -1.1950   18.4360 H   0  0  0  0  0  0  0  0  0  0  0  0
    6.3400   -2.2140   21.2510 C   0  0  0  0  0  0  0  0  0  0  0  0
    7.3430   -2.4720   22.3860 C   0  0  2  0  0  0  0  0  0  0  0  0
    6.9480   -3.6380   23.3090 C   0  0  0  0  0  0  0  0  0  0  0  0
    6.9570   -4.9090   22.6230 N   0  0  0  0  0  0  0  0  0  0  0  0
    6.6920   -6.0810   23.2420 C   0  0  0  0  0  0  0  0  0  0  0  0
    6.2550   -6.1720   24.5810 C   0  0  0  0  0  0  0  0  0  0  0  0
    5.9910   -7.4460   25.0550 C   0  0  0  0  0  0  0  0  0  0  0  0
    6.1730   -8.5540   24.3210 N   0  0  0  0  0  0  0  0  0  0  0  0
    6.6340   -8.3370   23.0910 C   0  0  0  0  0  0  0  0  0  0  0  0
    6.8790   -7.1790   22.4900 N   0  0  0  0  0  0  0  0  0  0  0  0
    6.8350   -9.2240   22.4930 H   0  0  0  0  0  0  0  0  0  0  0  0
    5.6300   -7.6050   26.0730 H   0  0  0  0  0  0  0  0  0  0  0  0
    6.1630   -5.2910   25.2190 H   0  0  0  0  0  0  0  0  0  0  0  0
    7.2770   -5.0170   21.6730 H   0  0  0  0  0  0  0  0  0  0  0  0
    7.6300   -3.6860   24.1680 H   0  0  0  0  0  0  0  0  0  0  0  0
    5.9430   -3.4770   23.7220 H   0  0  0  0  0  0  0  0  0  0  0  0
    8.3210   -2.7220   21.9530 H   0  0  0  0  0  0  0  0  0  0  0  0
    6.5600   -2.7610   20.3390 H   0  0  0  0  0  0  0  0  0  0  0  0
    5.3170   -2.4800   21.5470 H   0  0  0  0  0  0  0  0  0  0  0  0
    9.6980   -0.3640   21.5680 H   0  0  0  0  0  0  0  0  0  0  0  0
   12.6420   -0.3950   24.6790 H   0  0  0  0  0  0  0  0  0  0  0  0
   10.8530   -1.0400   26.3380 H   0  0  0  0  0  0  0  0  0  0  0  0
  1  2  2  0  0  0  0
  2  3  1  0  0  0  0
  2 12  1  0  0  0  0
  3  4  2  0  0  0  0
  3  9  1  0  0  0  0
  4  5  1  0  0  0  0
  4 67  1  0  0  0  0
  5  6  2  0  0  0  0
  5 66  1  0  0  0  0
  6  7  1  0  0  0  0
  6  8  1  0  0  0  0
  8  9  2  0  0  0  0
  8 65  1  0  0  0  0
 10  9  1  1  0  0  0
 10 11  1  0  0  0  0
 10 27  1  0  0  0  0
 10 47  1  0  0  0  0
 11 12  1  0  0  0  0
 11 25  1  0  0  0  0
 11 26  1  0  0  0  0
 12 13  1  0  0  0  0
 13 14  1  0  0  0  0
 13 23  1  0  0  0  0
 13 24  1  0  0  0  0
 14 15  2  0  0  0  0
 14 19  1  0  0  0  0
 15 16  1  0  0  0  0
 15 22  1  0  0  0  0
 16 17  2  0  0  0  0
 16 21  1  0  0  0  0
 17 18  1  0  0  0  0
 18 19  2  0  0  0  0
 19 20  1  0  0  0  0
 27 28  2  0  0  0  0
 27 29  1  0  0  0  0
 29 30  1  0  0  0  0
 29 46  1  0  0  0  0
 30 31  2  0  0  0  0
 30 39  1  0  0  0  0
 31 32  1  0  0  0  0
 31 45  1  0  0  0  0
 32 33  2  0  0  0  0
 33 34  1  0  0  0  0
 33 44  1  0  0  0  0
 34 35  2  0  0  0  0
 34 39  1  0  0  0  0
 35 36  1  0  0  0  0
 35 43  1  0  0  0  0
 36 37  2  0  0  0  0
 36 42  1  0  0  0  0
 37 38  1  0  0  0  0
 37 41  1  0  0  0  0
 38 39  2  0  0  0  0
 38 40  1  0  0  0  0
 46 47  1  0  0  0  0
 46 63  1  0  0  0  0
 46 64  1  0  0  0  0
 47 48  1  0  0  0  0
 47 62  1  6  0  0  0
 48 49  1  0  0  0  0
 48 60  1  0  0  0  0
 48 61  1  0  0  0  0
 49 50  1  0  0  0  0
 49 59  1  0  0  0  0
 50 51  2  0  0  0  0
 50 55  1  0  0  0  0
 51 52  1  0  0  0  0
 51 58  1  0  0  0  0
 52 53  2  0  0  0  0
 52 57  1  0  0  0  0
 53 54  1  0  0  0  0
 54 55  2  0  0  0  0
 54 56  1  0  0  0  0
M  END
>  <MODEL>
       8

$$$$
best_conformers_3.pdb
 OpenBabel02042510453D

 67 73  0  0  1  0  0  0  0  0999 V2000
    8.4510   -2.1520   26.9580 O   0  0  0  0  0  0  0  0  0  0  0  0
    8.1630   -1.6200   25.8920 C   0  0  0  0  0  0  0  0  0  0  0  0
    9.2090   -1.1870   24.9270 C   0  0  0  0  0  0  0  0  0  0  0  0
   10.5240   -1.1080   25.3810 C   0  0  0  0  0  0  0  0  0  0  0  0
   11.5360   -0.7420   24.5100 C   0  0  0  0  0  0  0  0  0  0  0  0
   11.2140   -0.4760   23.1780 C   0  0  0  0  0  0  0  0  0  0  0  0
   12.4840   -0.0350   22.0670 Cl  0  0  0  0  0  0  0  0  0  0  0  0
    9.9110   -0.5590   22.7160 C   0  0  0  0  0  0  0  0  0  0  0  0
    8.8840   -0.9110   23.5980 C   0  0  0  0  0  0  0  0  0  0  0  0
    7.4770   -1.1130   23.0930 C   0  0  1  0  0  0  0  0  0  0  0  0
    6.4880   -0.8180   24.2410 C   0  0  0  0  0  0  0  0  0  0  0  0
    6.8690   -1.3930   25.5190 N   0  0  0  0  0  0  0  0  0  0  0  0
    5.8330   -1.5940   26.5280 C   0  0  0  0  0  0  0  0  0  0  0  0
    5.3530   -3.0250   26.6770 C   0  0  0  0  0  0  0  0  0  0  0  0
    5.8980   -3.8930   27.5990 C   0  0  0  0  0  0  0  0  0  0  0  0
    5.4090   -5.1860   27.6520 C   0  0  0  0  0  0  0  0  0  0  0  0
    4.4900   -5.6420   26.8020 N   0  0  0  0  0  0  0  0  0  0  0  0
    3.8970   -4.8050   25.9740 N   0  0  0  0  0  0  0  0  0  0  0  0
    4.2920   -3.5350   25.9150 C   0  0  0  0  0  0  0  0  0  0  0  0
    3.7200   -2.9080   25.2260 H   0  0  0  0  0  0  0  0  0  0  0  0
    5.7600   -5.8940   28.4020 H   0  0  0  0  0  0  0  0  0  0  0  0
    6.7000   -3.5860   28.2630 H   0  0  0  0  0  0  0  0  0  0  0  0
    6.2480   -1.2530   27.4810 H   0  0  0  0  0  0  0  0  0  0  0  0
    4.9930   -0.9410   26.2680 H   0  0  0  0  0  0  0  0  0  0  0  0
    6.4020    0.2760   24.3090 H   0  0  0  0  0  0  0  0  0  0  0  0
    5.4960   -1.2070   23.9790 H   0  0  0  0  0  0  0  0  0  0  0  0
    7.0990   -0.1310   21.9750 C   0  0  0  0  0  0  0  0  0  0  0  0
    7.2860    1.0690   21.9540 O   0  0  0  0  0  0  0  0  0  0  0  0
    6.4390   -0.8200   20.9850 N   0  0  0  0  0  0  0  0  0  0  0  0
    5.8360   -0.1760   19.8790 C   0  0  0  0  0  0  0  0  0  0  0  0
    6.2690   -0.4680   18.6080 C   0  0  0  0  0  0  0  0  0  0  0  0
    5.7950    0.1090   17.4780 N   0  0  0  0  0  0  0  0  0  0  0  0
    4.8260    0.9840   17.6190 C   0  0  0  0  0  0  0  0  0  0  0  0
    4.2600    1.3520   18.8700 C   0  0  0  0  0  0  0  0  0  0  0  0
    3.2010    2.2940   18.9530 C   0  0  0  0  0  0  0  0  0  0  0  0
    2.6420    2.6110   20.1620 C   0  0  0  0  0  0  0  0  0  0  0  0
    3.1160    1.9960   21.3440 C   0  0  0  0  0  0  0  0  0  0  0  0
    4.1450    1.0900   21.2930 C   0  0  0  0  0  0  0  0  0  0  0  0
    4.7600    0.7560   20.0480 C   0  0  0  0  0  0  0  0  0  0  0  0
    4.4950    0.6330   22.2160 H   0  0  0  0  0  0  0  0  0  0  0  0
    2.6620    2.2500   22.3000 H   0  0  0  0  0  0  0  0  0  0  0  0
    1.8360    3.3380   20.2240 H   0  0  0  0  0  0  0  0  0  0  0  0
    2.8470    2.7580   18.0380 H   0  0  0  0  0  0  0  0  0  0  0  0
    4.4320    1.4420   16.7130 H   0  0  0  0  0  0  0  0  0  0  0  0
    7.0680   -1.1970   18.4700 H   0  0  0  0  0  0  0  0  0  0  0  0
    6.2710   -2.2340   21.2680 C   0  0  0  0  0  0  0  0  0  0  0  0
    7.2920   -2.4970   22.3870 C   0  0  2  0  0  0  0  0  0  0  0  0
    6.9520   -3.6600   23.3220 C   0  0  0  0  0  0  0  0  0  0  0  0
    7.0550   -4.9240   22.6400 N   0  0  0  0  0  0  0  0  0  0  0  0
    6.9050   -6.1310   23.2380 C   0  0  0  0  0  0  0  0  0  0  0  0
    6.9690   -7.2700   22.4330 C   0  0  0  0  0  0  0  0  0  0  0  0
    6.8480   -8.4780   23.0670 C   0  0  0  0  0  0  0  0  0  0  0  0
    6.6130   -8.5940   24.3800 N   0  0  0  0  0  0  0  0  0  0  0  0
    6.5400   -7.4440   25.0300 C   0  0  0  0  0  0  0  0  0  0  0  0
    6.6910   -6.2040   24.5610 N   0  0  0  0  0  0  0  0  0  0  0  0
    6.2960   -7.5400   26.0800 H   0  0  0  0  0  0  0  0  0  0  0  0
    6.9340   -9.3940   22.5000 H   0  0  0  0  0  0  0  0  0  0  0  0
    7.0680   -7.1320   21.3640 H   0  0  0  0  0  0  0  0  0  0  0  0
    7.1460   -4.9130   21.6370 H   0  0  0  0  0  0  0  0  0  0  0  0
    7.6400   -3.6740   24.1690 H   0  0  0  0  0  0  0  0  0  0  0  0
    5.9480   -3.5420   23.7420 H   0  0  0  0  0  0  0  0  0  0  0  0
    8.2560   -2.7300   21.9120 H   0  0  0  0  0  0  0  0  0  0  0  0
    6.4470   -2.8030   20.3560 H   0  0  0  0  0  0  0  0  0  0  0  0
    5.2420   -2.4470   21.5930 H   0  0  0  0  0  0  0  0  0  0  0  0
    9.6850   -0.3540   21.6750 H   0  0  0  0  0  0  0  0  0  0  0  0
   12.5680   -0.6730   24.8400 H   0  0  0  0  0  0  0  0  0  0  0  0
   10.7200   -1.3420   26.4240 H   0  0  0  0  0  0  0  0  0  0  0  0
  1  2  2  0  0  0  0
  2  3  1  0  0  0  0
  2 12  1  0  0  0  0
  3  4  2  0  0  0  0
  3  9  1  0  0  0  0
  4  5  1  0  0  0  0
  4 67  1  0  0  0  0
  5  6  2  0  0  0  0
  5 66  1  0  0  0  0
  6  7  1  0  0  0  0
  6  8  1  0  0  0  0
  8  9  2  0  0  0  0
  8 65  1  0  0  0  0
 10  9  1  1  0  0  0
 10 11  1  0  0  0  0
 10 27  1  0  0  0  0
 10 47  1  0  0  0  0
 11 12  1  0  0  0  0
 11 25  1  0  0  0  0
 11 26  1  0  0  0  0
 12 13  1  0  0  0  0
 13 14  1  0  0  0  0
 13 23  1  0  0  0  0
 13 24  1  0  0  0  0
 14 15  2  0  0  0  0
 14 19  1  0  0  0  0
 15 16  1  0  0  0  0
 15 22  1  0  0  0  0
 16 17  2  0  0  0  0
 16 21  1  0  0  0  0
 17 18  1  0  0  0  0
 18 19  2  0  0  0  0
 19 20  1  0  0  0  0
 27 28  2  0  0  0  0
 27 29  1  0  0  0  0
 29 30  1  0  0  0  0
 29 46  1  0  0  0  0
 30 31  2  0  0  0  0
 30 39  1  0  0  0  0
 31 32  1  0  0  0  0
 31 45  1  0  0  0  0
 32 33  2  0  0  0  0
 33 34  1  0  0  0  0
 33 44  1  0  0  0  0
 34 35  2  0  0  0  0
 34 39  1  0  0  0  0
 35 36  1  0  0  0  0
 35 43  1  0  0  0  0
 36 37  2  0  0  0  0
 36 42  1  0  0  0  0
 37 38  1  0  0  0  0
 37 41  1  0  0  0  0
 38 39  2  0  0  0  0
 38 40  1  0  0  0  0
 46 47  1  0  0  0  0
 46 63  1  0  0  0  0
 46 64  1  0  0  0  0
 47 48  1  0  0  0  0
 47 62  1  6  0  0  0
 48 49  1  0  0  0  0
 48 60  1  0  0  0  0
 48 61  1  0  0  0  0
 49 50  1  0  0  0  0
 49 59  1  0  0  0  0
 50 51  2  0  0  0  0
 50 55  1  0  0  0  0
 51 52  1  0  0  0  0
 51 58  1  0  0  0  0
 52 53  2  0  0  0  0
 52 57  1  0  0  0  0
 53 54  1  0  0  0  0
 54 55  2  0  0  0  0
 54 56  1  0  0  0  0
M  END
>  <MODEL>
       9

$$$$
