best_conformers_66.pdb
 OpenBabel02042510453D

 47 50  0  0  1  0  0  0  0  0999 V2000
    7.4860    1.2630   21.6070 O   0  0  0  0  0  0  0  0  0  0  0  0
    7.5820    0.0520   21.6800 C   0  0  0  0  0  0  0  0  0  0  0  0
    6.5020   -0.8490   21.0260 C   0  0  0  0  0  0  0  0  0  0  0  0
    5.8110   -0.1780   19.8520 C   0  0  0  0  0  0  0  0  0  0  0  0
    6.2330   -0.4400   18.5760 C   0  0  0  0  0  0  0  0  0  0  0  0
    5.7570    0.1390   17.4400 N   0  0  0  0  0  0  0  0  0  0  0  0
    4.7870    1.0110   17.5850 C   0  0  0  0  0  0  0  0  0  0  0  0
    4.2310    1.3790   18.8360 C   0  0  0  0  0  0  0  0  0  0  0  0
    3.1810    2.3280   18.9410 C   0  0  0  0  0  0  0  0  0  0  0  0
    2.6600    2.6630   20.1600 C   0  0  0  0  0  0  0  0  0  0  0  0
    3.1740    2.0620   21.3330 C   0  0  0  0  0  0  0  0  0  0  0  0
    4.1930    1.1440   21.2600 C   0  0  0  0  0  0  0  0  0  0  0  0
    4.7540    0.7730   20.0110 C   0  0  0  0  0  0  0  0  0  0  0  0
    4.5970    0.7090   22.1710 H   0  0  0  0  0  0  0  0  0  0  0  0
    2.7620    2.3390   22.2990 H   0  0  0  0  0  0  0  0  0  0  0  0
    1.8580    3.3960   20.2400 H   0  0  0  0  0  0  0  0  0  0  0  0
    2.8020    2.7890   18.0280 H   0  0  0  0  0  0  0  0  0  0  0  0
    4.3990    1.4840   16.6800 H   0  0  0  0  0  0  0  0  0  0  0  0
    7.0260   -1.1690   18.4010 H   0  0  0  0  0  0  0  0  0  0  0  0
    6.9680   -1.7830   20.6780 H   0  0  0  0  0  0  0  0  0  0  0  0
    5.7680   -1.1350   21.7910 H   0  0  0  0  0  0  0  0  0  0  0  0
    8.6570   -0.5490   22.3180 N   0  0  0  0  0  0  0  0  0  0  0  0
    8.6720   -1.9150   22.8120 C   0  0  0  0  0  0  0  0  0  0  0  0
    9.3840   -2.0100   24.1600 C   0  0  0  0  0  0  0  0  0  0  0  0
   10.7790   -1.3880   24.1510 C   0  0  1  0  0  0  0  0  0  0  0  0
   11.8110   -2.2450   23.4060 C   0  0  0  0  0  0  0  0  0  0  0  0
   13.1980   -1.6090   23.4520 C   0  0  0  0  0  0  0  0  0  0  0  0
   13.1430   -0.1960   22.9020 C   0  0  0  0  0  0  0  0  0  0  0  0
   12.9420   -0.2580   21.5410 F   0  0  0  0  0  0  0  0  0  0  0  0
   14.3490    0.4230   23.0460 F   0  0  0  0  0  0  0  0  0  0  0  0
   12.0900    0.6800   23.5560 C   0  0  0  0  0  0  0  0  0  0  0  0
   10.6940    0.0450   23.6040 C   0  0  1  0  0  0  0  0  0  0  0  0
    9.9660    0.0960   22.2590 C   0  0  0  0  0  0  0  0  0  0  0  0
   10.5890   -0.3540   21.4760 H   0  0  0  0  0  0  0  0  0  0  0  0
    9.8030    1.1360   21.9720 H   0  0  0  0  0  0  0  0  0  0  0  0
   10.0950    0.6380   24.3020 H   0  0  0  0  0  0  0  0  0  0  0  0
   12.4560    0.8810   24.5720 H   0  0  0  0  0  0  0  0  0  0  0  0
   12.0900    1.6440   23.0360 H   0  0  0  0  0  0  0  0  0  0  0  0
   13.9340   -2.1880   22.8840 H   0  0  0  0  0  0  0  0  0  0  0  0
   13.5540   -1.5490   24.4860 H   0  0  0  0  0  0  0  0  0  0  0  0
   11.8520   -3.2460   23.8470 H   0  0  0  0  0  0  0  0  0  0  0  0
   11.5130   -2.3790   22.3620 H   0  0  0  0  0  0  0  0  0  0  0  0
   11.1300   -1.3210   25.1910 H   0  0  0  0  0  0  0  0  0  0  0  0
    8.7720   -1.5150   24.9230 H   0  0  0  0  0  0  0  0  0  0  0  0
    9.4510   -3.0610   24.4610 H   0  0  0  0  0  0  0  0  0  0  0  0
    9.1550   -2.5940   22.0930 H   0  0  0  0  0  0  0  0  0  0  0  0
    7.6420   -2.2540   22.9290 H   0  0  0  0  0  0  0  0  0  0  0  0
  1  2  2  0  0  0  0
  2  3  1  0  0  0  0
  2 22  1  0  0  0  0
  3  4  1  0  0  0  0
  3 20  1  0  0  0  0
  3 21  1  0  0  0  0
  4  5  2  0  0  0  0
  4 13  1  0  0  0  0
  5  6  1  0  0  0  0
  5 19  1  0  0  0  0
  6  7  2  0  0  0  0
  7  8  1  0  0  0  0
  7 18  1  0  0  0  0
  8  9  2  0  0  0  0
  8 13  1  0  0  0  0
  9 10  1  0  0  0  0
  9 17  1  0  0  0  0
 10 11  2  0  0  0  0
 10 16  1  0  0  0  0
 11 12  1  0  0  0  0
 11 15  1  0  0  0  0
 12 13  2  0  0  0  0
 12 14  1  0  0  0  0
 22 23  1  0  0  0  0
 22 33  1  0  0  0  0
 23 24  1  0  0  0  0
 23 46  1  0  0  0  0
 23 47  1  0  0  0  0
 24 25  1  0  0  0  0
 24 44  1  0  0  0  0
 24 45  1  0  0  0  0
 25 26  1  0  0  0  0
 25 32  1  0  0  0  0
 25 43  1  1  0  0  0
 26 27  1  0  0  0  0
 26 41  1  0  0  0  0
 26 42  1  0  0  0  0
 27 28  1  0  0  0  0
 27 39  1  0  0  0  0
 27 40  1  0  0  0  0
 28 29  1  0  0  0  0
 28 30  1  0  0  0  0
 28 31  1  0  0  0  0
 31 32  1  0  0  0  0
 31 37  1  0  0  0  0
 31 38  1  0  0  0  0
 32 33  1  0  0  0  0
 32 36  1  1  0  0  0
 33 34  1  0  0  0  0
 33 35  1  0  0  0  0
M  END
>  <MODEL>
       1

$$$$
best_conformers_66.pdb
 OpenBabel02042510453D

 47 50  0  0  1  0  0  0  0  0999 V2000
    7.4870    1.2630   21.6040 O   0  0  0  0  0  0  0  0  0  0  0  0
    7.5780    0.0520   21.6850 C   0  0  0  0  0  0  0  0  0  0  0  0
    6.5010   -0.8490   21.0270 C   0  0  0  0  0  0  0  0  0  0  0  0
    5.8120   -0.1780   19.8520 C   0  0  0  0  0  0  0  0  0  0  0  0
    6.2330   -0.4400   18.5770 C   0  0  0  0  0  0  0  0  0  0  0  0
    5.7570    0.1390   17.4410 N   0  0  0  0  0  0  0  0  0  0  0  0
    4.7870    1.0110   17.5850 C   0  0  0  0  0  0  0  0  0  0  0  0
    4.2310    1.3790   18.8360 C   0  0  0  0  0  0  0  0  0  0  0  0
    3.1810    2.3280   18.9410 C   0  0  0  0  0  0  0  0  0  0  0  0
    2.6600    2.6630   20.1600 C   0  0  0  0  0  0  0  0  0  0  0  0
    3.1740    2.0620   21.3330 C   0  0  0  0  0  0  0  0  0  0  0  0
    4.1930    1.1440   21.2600 C   0  0  0  0  0  0  0  0  0  0  0  0
    4.7540    0.7730   20.0110 C   0  0  0  0  0  0  0  0  0  0  0  0
    4.5970    0.7080   22.1720 H   0  0  0  0  0  0  0  0  0  0  0  0
    2.7620    2.3390   22.2990 H   0  0  0  0  0  0  0  0  0  0  0  0
    1.8580    3.3960   20.2400 H   0  0  0  0  0  0  0  0  0  0  0  0
    2.8020    2.7890   18.0280 H   0  0  0  0  0  0  0  0  0  0  0  0
    4.3990    1.4840   16.6800 H   0  0  0  0  0  0  0  0  0  0  0  0
    7.0260   -1.1690   18.4010 H   0  0  0  0  0  0  0  0  0  0  0  0
    6.9690   -1.7810   20.6780 H   0  0  0  0  0  0  0  0  0  0  0  0
    5.7650   -1.1380   21.7890 H   0  0  0  0  0  0  0  0  0  0  0  0
    8.6450   -0.5490   22.3360 N   0  0  0  0  0  0  0  0  0  0  0  0
    8.6530   -1.9140   22.8340 C   0  0  0  0  0  0  0  0  0  0  0  0
    9.3490   -2.0060   24.1910 C   0  0  0  0  0  0  0  0  0  0  0  0
   10.7440   -1.3850   24.1970 C   0  0  1  0  0  0  0  0  0  0  0  0
   11.7840   -2.2450   23.4670 C   0  0  0  0  0  0  0  0  0  0  0  0
   13.1710   -1.6100   23.5280 C   0  0  0  0  0  0  0  0  0  0  0  0
   13.1210   -0.1980   22.9750 C   0  0  0  0  0  0  0  0  0  0  0  0
   14.3230    0.4230   23.1340 F   0  0  0  0  0  0  0  0  0  0  0  0
   12.9370   -0.2630   21.6100 F   0  0  0  0  0  0  0  0  0  0  0  0
   12.0610    0.6810   23.6140 C   0  0  0  0  0  0  0  0  0  0  0  0
   10.6660    0.0470   23.6460 C   0  0  1  0  0  0  0  0  0  0  0  0
    9.9550    0.0950   22.2910 C   0  0  0  0  0  0  0  0  0  0  0  0
    9.7970    1.1350   22.0000 H   0  0  0  0  0  0  0  0  0  0  0  0
   10.5880   -0.3580   21.5170 H   0  0  0  0  0  0  0  0  0  0  0  0
   10.0590    0.6420   24.3350 H   0  0  0  0  0  0  0  0  0  0  0  0
   12.0700    1.6430   23.0910 H   0  0  0  0  0  0  0  0  0  0  0  0
   12.4160    0.8840   24.6330 H   0  0  0  0  0  0  0  0  0  0  0  0
   13.5150   -1.5470   24.5670 H   0  0  0  0  0  0  0  0  0  0  0  0
   13.9150   -2.1900   22.9720 H   0  0  0  0  0  0  0  0  0  0  0  0
   11.4990   -2.3810   22.4200 H   0  0  0  0  0  0  0  0  0  0  0  0
   11.8190   -3.2450   23.9110 H   0  0  0  0  0  0  0  0  0  0  0  0
   11.0820   -1.3160   25.2410 H   0  0  0  0  0  0  0  0  0  0  0  0
    8.7280   -1.5100   24.9440 H   0  0  0  0  0  0  0  0  0  0  0  0
    9.4110   -3.0560   24.4950 H   0  0  0  0  0  0  0  0  0  0  0  0
    7.6220   -2.2520   22.9380 H   0  0  0  0  0  0  0  0  0  0  0  0
    9.1450   -2.5950   22.1220 H   0  0  0  0  0  0  0  0  0  0  0  0
  1  2  2  0  0  0  0
  2  3  1  0  0  0  0
  2 22  1  0  0  0  0
  3  4  1  0  0  0  0
  3 20  1  0  0  0  0
  3 21  1  0  0  0  0
  4  5  2  0  0  0  0
  4 13  1  0  0  0  0
  5  6  1  0  0  0  0
  5 19  1  0  0  0  0
  6  7  2  0  0  0  0
  7  8  1  0  0  0  0
  7 18  1  0  0  0  0
  8  9  2  0  0  0  0
  8 13  1  0  0  0  0
  9 10  1  0  0  0  0
  9 17  1  0  0  0  0
 10 11  2  0  0  0  0
 10 16  1  0  0  0  0
 11 12  1  0  0  0  0
 11 15  1  0  0  0  0
 12 13  2  0  0  0  0
 12 14  1  0  0  0  0
 22 23  1  0  0  0  0
 22 33  1  0  0  0  0
 23 24  1  0  0  0  0
 23 46  1  0  0  0  0
 23 47  1  0  0  0  0
 24 25  1  0  0  0  0
 24 44  1  0  0  0  0
 24 45  1  0  0  0  0
 25 26  1  0  0  0  0
 25 32  1  0  0  0  0
 25 43  1  1  0  0  0
 26 27  1  0  0  0  0
 26 41  1  0  0  0  0
 26 42  1  0  0  0  0
 27 28  1  0  0  0  0
 27 39  1  0  0  0  0
 27 40  1  0  0  0  0
 28 29  1  0  0  0  0
 28 30  1  0  0  0  0
 28 31  1  0  0  0  0
 31 32  1  0  0  0  0
 31 37  1  0  0  0  0
 31 38  1  0  0  0  0
 32 33  1  0  0  0  0
 32 36  1  1  0  0  0
 33 34  1  0  0  0  0
 33 35  1  0  0  0  0
M  END
>  <MODEL>
       2

$$$$
best_conformers_66.pdb
 OpenBabel02042510453D

 47 50  0  0  1  0  0  0  0  0999 V2000
    4.5160   -2.3910   21.1510 O   0  0  0  0  0  0  0  0  0  0  0  0
    5.6950   -2.2380   21.4160 C   0  0  0  0  0  0  0  0  0  0  0  0
    6.4370   -0.9630   21.0290 C   0  0  0  0  0  0  0  0  0  0  0  0
    5.8020   -0.2450   19.8690 C   0  0  0  0  0  0  0  0  0  0  0  0
    6.2670   -0.4810   18.6020 C   0  0  0  0  0  0  0  0  0  0  0  0
    5.8060    0.1020   17.4630 N   0  0  0  0  0  0  0  0  0  0  0  0
    4.8270    0.9650   17.6020 C   0  0  0  0  0  0  0  0  0  0  0  0
    4.2480    1.3180   18.8510 C   0  0  0  0  0  0  0  0  0  0  0  0
    3.2100    2.2800   18.9460 C   0  0  0  0  0  0  0  0  0  0  0  0
    2.6740    2.6080   20.1590 C   0  0  0  0  0  0  0  0  0  0  0  0
    3.1540    1.9890   21.3350 C   0  0  0  0  0  0  0  0  0  0  0  0
    4.1560    1.0490   21.2700 C   0  0  0  0  0  0  0  0  0  0  0  0
    4.7360    0.6920   20.0240 C   0  0  0  0  0  0  0  0  0  0  0  0
    4.5140    0.5770   22.1800 H   0  0  0  0  0  0  0  0  0  0  0  0
    2.7310    2.2690   22.2950 H   0  0  0  0  0  0  0  0  0  0  0  0
    1.8760    3.3450   20.2290 H   0  0  0  0  0  0  0  0  0  0  0  0
    2.8590    2.7560   18.0320 H   0  0  0  0  0  0  0  0  0  0  0  0
    4.4410    1.4380   16.6970 H   0  0  0  0  0  0  0  0  0  0  0  0
    7.0810   -1.1880   18.4400 H   0  0  0  0  0  0  0  0  0  0  0  0
    6.5160   -0.3170   21.9120 H   0  0  0  0  0  0  0  0  0  0  0  0
    7.4590   -1.2470   20.7520 H   0  0  0  0  0  0  0  0  0  0  0  0
    6.3990   -3.2350   22.0230 N   0  0  0  0  0  0  0  0  0  0  0  0
    7.6940   -3.0760   22.6820 C   0  0  0  0  0  0  0  0  0  0  0  0
    7.7030   -3.7900   24.0230 C   0  0  0  0  0  0  0  0  0  0  0  0
    7.2390   -5.2500   23.9420 C   0  0  1  0  0  0  0  0  0  0  0  0
    6.2520   -5.4630   25.0960 C   0  0  0  0  0  0  0  0  0  0  0  0
    5.7860   -6.8990   25.1720 C   0  0  0  0  0  0  0  0  0  0  0  0
    5.0680   -7.1970   23.8750 C   0  0  0  0  0  0  0  0  0  0  0  0
    4.5530   -8.4570   23.9350 F   0  0  0  0  0  0  0  0  0  0  0  0
    3.9770   -6.3520   23.7680 F   0  0  0  0  0  0  0  0  0  0  0  0
    5.9410   -7.0080   22.6390 C   0  0  0  0  0  0  0  0  0  0  0  0
    6.6020   -5.6110   22.5790 C   0  0  1  0  0  0  0  0  0  0  0  0
    5.6740   -4.4990   22.1070 C   0  0  0  0  0  0  0  0  0  0  0  0
    4.7850   -4.3900   22.7410 H   0  0  0  0  0  0  0  0  0  0  0  0
    5.2990   -4.7210   21.1010 H   0  0  0  0  0  0  0  0  0  0  0  0
    7.4060   -5.6580   21.8320 H   0  0  0  0  0  0  0  0  0  0  0  0
    5.3340   -7.2250   21.7520 H   0  0  0  0  0  0  0  0  0  0  0  0
    6.7270   -7.7730   22.6660 H   0  0  0  0  0  0  0  0  0  0  0  0
    6.6390   -7.5810   25.2600 H   0  0  0  0  0  0  0  0  0  0  0  0
    5.1200   -7.1110   26.0150 H   0  0  0  0  0  0  0  0  0  0  0  0
    5.3810   -4.8280   24.9050 H   0  0  0  0  0  0  0  0  0  0  0  0
    6.6810   -5.1090   26.0370 H   0  0  0  0  0  0  0  0  0  0  0  0
    8.0820   -5.9410   24.0800 H   0  0  0  0  0  0  0  0  0  0  0  0
    8.6870   -3.7310   24.5020 H   0  0  0  0  0  0  0  0  0  0  0  0
    7.0100   -3.2480   24.6750 H   0  0  0  0  0  0  0  0  0  0  0  0
    7.8670   -2.0130   22.8420 H   0  0  0  0  0  0  0  0  0  0  0  0
    8.5200   -3.4390   22.0620 H   0  0  0  0  0  0  0  0  0  0  0  0
  1  2  2  0  0  0  0
  2  3  1  0  0  0  0
  2 22  1  0  0  0  0
  3  4  1  0  0  0  0
  3 20  1  0  0  0  0
  3 21  1  0  0  0  0
  4  5  2  0  0  0  0
  4 13  1  0  0  0  0
  5  6  1  0  0  0  0
  5 19  1  0  0  0  0
  6  7  2  0  0  0  0
  7  8  1  0  0  0  0
  7 18  1  0  0  0  0
  8  9  2  0  0  0  0
  8 13  1  0  0  0  0
  9 10  1  0  0  0  0
  9 17  1  0  0  0  0
 10 11  2  0  0  0  0
 10 16  1  0  0  0  0
 11 12  1  0  0  0  0
 11 15  1  0  0  0  0
 12 13  2  0  0  0  0
 12 14  1  0  0  0  0
 22 23  1  0  0  0  0
 22 33  1  0  0  0  0
 23 24  1  0  0  0  0
 23 46  1  0  0  0  0
 23 47  1  0  0  0  0
 24 25  1  0  0  0  0
 24 44  1  0  0  0  0
 24 45  1  0  0  0  0
 25 26  1  0  0  0  0
 25 32  1  0  0  0  0
 25 43  1  1  0  0  0
 26 27  1  0  0  0  0
 26 41  1  0  0  0  0
 26 42  1  0  0  0  0
 27 28  1  0  0  0  0
 27 39  1  0  0  0  0
 27 40  1  0  0  0  0
 28 29  1  0  0  0  0
 28 30  1  0  0  0  0
 28 31  1  0  0  0  0
 31 32  1  0  0  0  0
 31 37  1  0  0  0  0
 31 38  1  0  0  0  0
 32 33  1  0  0  0  0
 32 36  1  6  0  0  0
 33 34  1  0  0  0  0
 33 35  1  0  0  0  0
M  END
>  <MODEL>
       3

$$$$
best_conformers_66.pdb
 OpenBabel02042510453D

 47 50  0  0  1  0  0  0  0  0999 V2000
    4.5110   -2.3840   21.1460 O   0  0  0  0  0  0  0  0  0  0  0  0
    5.6950   -2.2430   21.4030 C   0  0  0  0  0  0  0  0  0  0  0  0
    6.4390   -0.9640   21.0270 C   0  0  0  0  0  0  0  0  0  0  0  0
    5.8050   -0.2440   19.8670 C   0  0  0  0  0  0  0  0  0  0  0  0
    6.2660   -0.4820   18.6000 C   0  0  0  0  0  0  0  0  0  0  0  0
    5.8070    0.1010   17.4620 N   0  0  0  0  0  0  0  0  0  0  0  0
    4.8270    0.9660   17.6020 C   0  0  0  0  0  0  0  0  0  0  0  0
    4.2480    1.3160   18.8510 C   0  0  0  0  0  0  0  0  0  0  0  0
    3.2110    2.2780   18.9440 C   0  0  0  0  0  0  0  0  0  0  0  0
    2.6750    2.6060   20.1600 C   0  0  0  0  0  0  0  0  0  0  0  0
    3.1560    1.9850   21.3340 C   0  0  0  0  0  0  0  0  0  0  0  0
    4.1560    1.0460   21.2700 C   0  0  0  0  0  0  0  0  0  0  0  0
    4.7360    0.6890   20.0220 C   0  0  0  0  0  0  0  0  0  0  0  0
    4.5110    0.5740   22.1810 H   0  0  0  0  0  0  0  0  0  0  0  0
    2.7310    2.2670   22.2940 H   0  0  0  0  0  0  0  0  0  0  0  0
    1.8800    3.3430   20.2290 H   0  0  0  0  0  0  0  0  0  0  0  0
    2.8590    2.7550   18.0320 H   0  0  0  0  0  0  0  0  0  0  0  0
    4.4420    1.4380   16.6970 H   0  0  0  0  0  0  0  0  0  0  0  0
    7.0820   -1.1890   18.4440 H   0  0  0  0  0  0  0  0  0  0  0  0
    6.5100   -0.3240   21.9160 H   0  0  0  0  0  0  0  0  0  0  0  0
    7.4620   -1.2460   20.7510 H   0  0  0  0  0  0  0  0  0  0  0  0
    6.4030   -3.2470   21.9950 N   0  0  0  0  0  0  0  0  0  0  0  0
    7.7060   -3.0850   22.6480 C   0  0  0  0  0  0  0  0  0  0  0  0
    7.7240   -3.8070   23.9860 C   0  0  0  0  0  0  0  0  0  0  0  0
    7.2620   -5.2700   23.9030 C   0  0  1  0  0  0  0  0  0  0  0  0
    6.2870   -5.4830   25.0740 C   0  0  0  0  0  0  0  0  0  0  0  0
    5.8150   -6.9170   25.1350 C   0  0  0  0  0  0  0  0  0  0  0  0
    5.0730   -7.1940   23.8590 C   0  0  0  0  0  0  0  0  0  0  0  0
    3.9990   -6.3250   23.7700 F   0  0  0  0  0  0  0  0  0  0  0  0
    4.5330   -8.4380   23.9690 F   0  0  0  0  0  0  0  0  0  0  0  0
    5.9330   -7.0210   22.6090 C   0  0  0  0  0  0  0  0  0  0  0  0
    6.6130   -5.6300   22.5410 C   0  0  1  0  0  0  0  0  0  0  0  0
    5.6830   -4.5160   22.0750 C   0  0  0  0  0  0  0  0  0  0  0  0
    5.2980   -4.7360   21.0700 H   0  0  0  0  0  0  0  0  0  0  0  0
    4.8030   -4.4050   22.7190 H   0  0  0  0  0  0  0  0  0  0  0  0
    7.4070   -5.6840   21.7800 H   0  0  0  0  0  0  0  0  0  0  0  0
    5.3240   -7.2380   21.7280 H   0  0  0  0  0  0  0  0  0  0  0  0
    6.7150   -7.7840   22.6470 H   0  0  0  0  0  0  0  0  0  0  0  0
    6.6660   -7.6050   25.2160 H   0  0  0  0  0  0  0  0  0  0  0  0
    5.1660   -7.1380   25.9910 H   0  0  0  0  0  0  0  0  0  0  0  0
    5.4090   -4.8520   24.8800 H   0  0  0  0  0  0  0  0  0  0  0  0
    6.7320   -5.1390   26.0150 H   0  0  0  0  0  0  0  0  0  0  0  0
    8.1090   -5.9610   24.0270 H   0  0  0  0  0  0  0  0  0  0  0  0
    7.0300   -3.2700   24.6440 H   0  0  0  0  0  0  0  0  0  0  0  0
    8.7090   -3.7530   24.4630 H   0  0  0  0  0  0  0  0  0  0  0  0
    7.8740   -2.0210   22.8250 H   0  0  0  0  0  0  0  0  0  0  0  0
    8.5300   -3.4440   22.0200 H   0  0  0  0  0  0  0  0  0  0  0  0
  1  2  2  0  0  0  0
  2  3  1  0  0  0  0
  2 22  1  0  0  0  0
  3  4  1  0  0  0  0
  3 20  1  0  0  0  0
  3 21  1  0  0  0  0
  4  5  2  0  0  0  0
  4 13  1  0  0  0  0
  5  6  1  0  0  0  0
  5 19  1  0  0  0  0
  6  7  2  0  0  0  0
  7  8  1  0  0  0  0
  7 18  1  0  0  0  0
  8  9  2  0  0  0  0
  8 13  1  0  0  0  0
  9 10  1  0  0  0  0
  9 17  1  0  0  0  0
 10 11  2  0  0  0  0
 10 16  1  0  0  0  0
 11 12  1  0  0  0  0
 11 15  1  0  0  0  0
 12 13  2  0  0  0  0
 12 14  1  0  0  0  0
 22 23  1  0  0  0  0
 22 33  1  0  0  0  0
 23 24  1  0  0  0  0
 23 46  1  0  0  0  0
 23 47  1  0  0  0  0
 24 25  1  0  0  0  0
 24 44  1  0  0  0  0
 24 45  1  0  0  0  0
 25 26  1  0  0  0  0
 25 32  1  0  0  0  0
 25 43  1  1  0  0  0
 26 27  1  0  0  0  0
 26 41  1  0  0  0  0
 26 42  1  0  0  0  0
 27 28  1  0  0  0  0
 27 39  1  0  0  0  0
 27 40  1  0  0  0  0
 28 29  1  0  0  0  0
 28 30  1  0  0  0  0
 28 31  1  0  0  0  0
 31 32  1  0  0  0  0
 31 37  1  0  0  0  0
 31 38  1  0  0  0  0
 32 33  1  0  0  0  0
 32 36  1  6  0  0  0
 33 34  1  0  0  0  0
 33 35  1  0  0  0  0
M  END
>  <MODEL>
       4

$$$$
best_conformers_66.pdb
 OpenBabel02042510453D

 47 50  0  0  1  0  0  0  0  0999 V2000
    7.5920    1.2330   21.2290 O   0  0  0  0  0  0  0  0  0  0  0  0
    7.5950    0.0630   21.5810 C   0  0  0  0  0  0  0  0  0  0  0  0
    6.5230   -0.9010   21.0400 C   0  0  0  0  0  0  0  0  0  0  0  0
    5.8570   -0.2610   19.8590 C   0  0  0  0  0  0  0  0  0  0  0  0
    6.3550   -0.4830   18.6050 C   0  0  0  0  0  0  0  0  0  0  0  0
    5.8930    0.0860   17.4600 N   0  0  0  0  0  0  0  0  0  0  0  0
    4.8970    0.9350   17.5940 C   0  0  0  0  0  0  0  0  0  0  0  0
    4.3200    1.3070   18.8390 C   0  0  0  0  0  0  0  0  0  0  0  0
    3.2660    2.2520   18.9310 C   0  0  0  0  0  0  0  0  0  0  0  0
    2.7360    2.5910   20.1490 C   0  0  0  0  0  0  0  0  0  0  0  0
    3.2550    2.0150   21.3300 C   0  0  0  0  0  0  0  0  0  0  0  0
    4.2840    1.1080   21.2700 C   0  0  0  0  0  0  0  0  0  0  0  0
    4.8260    0.7100   20.0170 C   0  0  0  0  0  0  0  0  0  0  0  0
    4.7030    0.7070   22.1880 H   0  0  0  0  0  0  0  0  0  0  0  0
    2.8270    2.2890   22.2920 H   0  0  0  0  0  0  0  0  0  0  0  0
    1.9160    3.3020   20.2130 H   0  0  0  0  0  0  0  0  0  0  0  0
    2.8910    2.6990   18.0140 H   0  0  0  0  0  0  0  0  0  0  0  0
    4.5030    1.3800   16.6800 H   0  0  0  0  0  0  0  0  0  0  0  0
    7.2040   -1.1570   18.4780 H   0  0  0  0  0  0  0  0  0  0  0  0
    6.9860   -1.8500   20.7350 H   0  0  0  0  0  0  0  0  0  0  0  0
    5.8020   -1.1410   21.8350 H   0  0  0  0  0  0  0  0  0  0  0  0
    8.5240   -0.4100   22.4640 N   0  0  0  0  0  0  0  0  0  0  0  0
    8.6690   -1.8260   22.8060 C   0  0  0  0  0  0  0  0  0  0  0  0
    9.3900   -2.0320   24.1420 C   0  0  0  0  0  0  0  0  0  0  0  0
   10.6540   -1.1680   24.3410 C   0  0  1  0  0  0  0  0  0  0  0  0
   11.9620   -1.9530   24.4770 C   0  0  0  0  0  0  0  0  0  0  0  0
   12.4430   -2.5560   23.1640 C   0  0  0  0  0  0  0  0  0  0  0  0
   12.7080   -1.4600   22.1650 C   0  0  0  0  0  0  0  0  0  0  0  0
   13.7050   -0.6520   22.6640 F   0  0  0  0  0  0  0  0  0  0  0  0
   13.1770   -1.9850   20.9900 F   0  0  0  0  0  0  0  0  0  0  0  0
   11.4630   -0.6380   21.9330 C   0  0  0  0  0  0  0  0  0  0  0  0
   10.8400   -0.1120   23.2380 C   0  0  1  0  0  0  0  0  0  0  0  0
    9.5250    0.5660   22.9040 C   0  0  0  0  0  0  0  0  0  0  0  0
    9.6840    1.2700   22.0810 H   0  0  0  0  0  0  0  0  0  0  0  0
    9.1380    1.1500   23.7520 H   0  0  0  0  0  0  0  0  0  0  0  0
   11.5220    0.6450   23.6430 H   0  0  0  0  0  0  0  0  0  0  0  0
   10.7540   -1.2600   21.3820 H   0  0  0  0  0  0  0  0  0  0  0  0
   11.6780    0.2280   21.3110 H   0  0  0  0  0  0  0  0  0  0  0  0
   13.3670   -3.1220   23.2880 H   0  0  0  0  0  0  0  0  0  0  0  0
   11.6760   -3.2140   22.7540 H   0  0  0  0  0  0  0  0  0  0  0  0
   11.8480   -2.7390   25.2250 H   0  0  0  0  0  0  0  0  0  0  0  0
   12.7460   -1.2670   24.8140 H   0  0  0  0  0  0  0  0  0  0  0  0
   10.5140   -0.6370   25.2920 H   0  0  0  0  0  0  0  0  0  0  0  0
    8.6880   -1.7920   24.9470 H   0  0  0  0  0  0  0  0  0  0  0  0
    9.6160   -3.1020   24.2480 H   0  0  0  0  0  0  0  0  0  0  0  0
    9.1850   -2.3770   22.0060 H   0  0  0  0  0  0  0  0  0  0  0  0
    7.6720   -2.2730   22.8810 H   0  0  0  0  0  0  0  0  0  0  0  0
  1  2  2  0  0  0  0
  2  3  1  0  0  0  0
  2 22  1  0  0  0  0
  3  4  1  0  0  0  0
  3 20  1  0  0  0  0
  3 21  1  0  0  0  0
  4  5  2  0  0  0  0
  4 13  1  0  0  0  0
  5  6  1  0  0  0  0
  5 19  1  0  0  0  0
  6  7  2  0  0  0  0
  7  8  1  0  0  0  0
  7 18  1  0  0  0  0
  8  9  2  0  0  0  0
  8 13  1  0  0  0  0
  9 10  1  0  0  0  0
  9 17  1  0  0  0  0
 10 11  2  0  0  0  0
 10 16  1  0  0  0  0
 11 12  1  0  0  0  0
 11 15  1  0  0  0  0
 12 13  2  0  0  0  0
 12 14  1  0  0  0  0
 22 23  1  0  0  0  0
 22 33  1  0  0  0  0
 23 24  1  0  0  0  0
 23 46  1  0  0  0  0
 23 47  1  0  0  0  0
 24 25  1  0  0  0  0
 24 44  1  0  0  0  0
 24 45  1  0  0  0  0
 25 26  1  0  0  0  0
 25 32  1  0  0  0  0
 25 43  1  1  0  0  0
 26 27  1  0  0  0  0
 26 41  1  0  0  0  0
 26 42  1  0  0  0  0
 27 28  1  0  0  0  0
 27 39  1  0  0  0  0
 27 40  1  0  0  0  0
 28 29  1  0  0  0  0
 28 30  1  0  0  0  0
 28 31  1  0  0  0  0
 31 32  1  0  0  0  0
 31 37  1  0  0  0  0
 31 38  1  0  0  0  0
 32 33  1  0  0  0  0
 32 36  1  1  0  0  0
 33 34  1  0  0  0  0
 33 35  1  0  0  0  0
M  END
>  <MODEL>
       5

$$$$
best_conformers_66.pdb
 OpenBabel02042510453D

 47 50  0  0  1  0  0  0  0  0999 V2000
    7.9960    0.9740   21.2990 O   0  0  0  0  0  0  0  0  0  0  0  0
    7.3120    0.1420   21.8550 C   0  0  0  0  0  0  0  0  0  0  0  0
    6.4590   -0.8510   21.0390 C   0  0  0  0  0  0  0  0  0  0  0  0
    5.8050   -0.1830   19.8460 C   0  0  0  0  0  0  0  0  0  0  0  0
    6.2380   -0.4410   18.5720 C   0  0  0  0  0  0  0  0  0  0  0  0
    5.7610    0.1400   17.4370 N   0  0  0  0  0  0  0  0  0  0  0  0
    4.7890    1.0100   17.5830 C   0  0  0  0  0  0  0  0  0  0  0  0
    4.2310    1.3770   18.8360 C   0  0  0  0  0  0  0  0  0  0  0  0
    3.1820    2.3270   18.9430 C   0  0  0  0  0  0  0  0  0  0  0  0
    2.6600    2.6600   20.1640 C   0  0  0  0  0  0  0  0  0  0  0  0
    3.1720    2.0550   21.3350 C   0  0  0  0  0  0  0  0  0  0  0  0
    4.1910    1.1370   21.2590 C   0  0  0  0  0  0  0  0  0  0  0  0
    4.7520    0.7690   20.0060 C   0  0  0  0  0  0  0  0  0  0  0  0
    4.5720    0.6860   22.1720 H   0  0  0  0  0  0  0  0  0  0  0  0
    2.7560    2.3260   22.3020 H   0  0  0  0  0  0  0  0  0  0  0  0
    1.8580    3.3930   20.2440 H   0  0  0  0  0  0  0  0  0  0  0  0
    2.8040    2.7910   18.0330 H   0  0  0  0  0  0  0  0  0  0  0  0
    4.4000    1.4830   16.6800 H   0  0  0  0  0  0  0  0  0  0  0  0
    7.0310   -1.1710   18.4010 H   0  0  0  0  0  0  0  0  0  0  0  0
    5.7100   -1.3220   21.6870 H   0  0  0  0  0  0  0  0  0  0  0  0
    7.1210   -1.6510   20.6830 H   0  0  0  0  0  0  0  0  0  0  0  0
    7.1980    0.0700   23.2450 N   0  0  0  0  0  0  0  0  0  0  0  0
    7.4330    1.2830   24.0210 C   0  0  0  0  0  0  0  0  0  0  0  0
    6.4980    1.3170   25.2260 C   0  0  0  0  0  0  0  0  0  0  0  0
    6.6300    0.0560   26.0800 C   0  0  1  0  0  0  0  0  0  0  0  0
    5.6580    0.0460   27.2730 C   0  0  0  0  0  0  0  0  0  0  0  0
    4.2010   -0.2070   26.8710 C   0  0  0  0  0  0  0  0  0  0  0  0
    4.0790   -1.4560   26.0250 C   0  0  0  0  0  0  0  0  0  0  0  0
    2.7810   -1.6160   25.6170 F   0  0  0  0  0  0  0  0  0  0  0  0
    4.3710   -2.5500   26.8060 F   0  0  0  0  0  0  0  0  0  0  0  0
    5.0000   -1.4550   24.8240 C   0  0  0  0  0  0  0  0  0  0  0  0
    6.4580   -1.2150   25.2300 C   0  0  1  0  0  0  0  0  0  0  0  0
    7.3730   -1.1630   24.0070 C   0  0  0  0  0  0  0  0  0  0  0  0
    8.4190   -1.2760   24.3420 H   0  0  0  0  0  0  0  0  0  0  0  0
    7.1770   -2.0050   23.3450 H   0  0  0  0  0  0  0  0  0  0  0  0
    6.7600   -2.0690   25.8450 H   0  0  0  0  0  0  0  0  0  0  0  0
    4.6570   -0.6750   24.1360 H   0  0  0  0  0  0  0  0  0  0  0  0
    4.8860   -2.4160   24.3120 H   0  0  0  0  0  0  0  0  0  0  0  0
    3.5550   -0.3180   27.7490 H   0  0  0  0  0  0  0  0  0  0  0  0
    3.8080    0.6260   26.2810 H   0  0  0  0  0  0  0  0  0  0  0  0
    5.9640   -0.7340   27.9800 H   0  0  0  0  0  0  0  0  0  0  0  0
    5.7250    0.9960   27.8130 H   0  0  0  0  0  0  0  0  0  0  0  0
    7.6530    0.0530   26.4820 H   0  0  0  0  0  0  0  0  0  0  0  0
    6.7060    2.2020   25.8380 H   0  0  0  0  0  0  0  0  0  0  0  0
    5.4660    1.4390   24.8820 H   0  0  0  0  0  0  0  0  0  0  0  0
    8.4790    1.3630   24.3600 H   0  0  0  0  0  0  0  0  0  0  0  0
    7.2540    2.1340   23.3640 H   0  0  0  0  0  0  0  0  0  0  0  0
  1  2  2  0  0  0  0
  2  3  1  0  0  0  0
  2 22  1  0  0  0  0
  3  4  1  0  0  0  0
  3 20  1  0  0  0  0
  3 21  1  0  0  0  0
  4  5  2  0  0  0  0
  4 13  1  0  0  0  0
  5  6  1  0  0  0  0
  5 19  1  0  0  0  0
  6  7  2  0  0  0  0
  7  8  1  0  0  0  0
  7 18  1  0  0  0  0
  8  9  2  0  0  0  0
  8 13  1  0  0  0  0
  9 10  1  0  0  0  0
  9 17  1  0  0  0  0
 10 11  2  0  0  0  0
 10 16  1  0  0  0  0
 11 12  1  0  0  0  0
 11 15  1  0  0  0  0
 12 13  2  0  0  0  0
 12 14  1  0  0  0  0
 22 23  1  0  0  0  0
 22 33  1  0  0  0  0
 23 24  1  0  0  0  0
 23 46  1  0  0  0  0
 23 47  1  0  0  0  0
 24 25  1  0  0  0  0
 24 44  1  0  0  0  0
 24 45  1  0  0  0  0
 25 26  1  0  0  0  0
 25 32  1  0  0  0  0
 25 43  1  1  0  0  0
 26 27  1  0  0  0  0
 26 41  1  0  0  0  0
 26 42  1  0  0  0  0
 27 28  1  0  0  0  0
 27 39  1  0  0  0  0
 27 40  1  0  0  0  0
 28 29  1  0  0  0  0
 28 30  1  0  0  0  0
 28 31  1  0  0  0  0
 31 32  1  0  0  0  0
 31 37  1  0  0  0  0
 31 38  1  0  0  0  0
 32 33  1  0  0  0  0
 32 36  1  1  0  0  0
 33 34  1  0  0  0  0
 33 35  1  0  0  0  0
M  END
>  <MODEL>
       6

$$$$
