best_conformers_39.pdb
 OpenBabel02042510453D

 60 64  0  0  1  0  0  0  0  0999 V2000
   10.6860   -1.5740   24.2710 C   0  0  0  0  0  0  0  0  0  0  0  0
    9.6080   -2.5880   23.9150 C   0  0  0  0  0  0  0  0  0  0  0  0
    9.0860   -2.3330   22.6210 O   0  0  0  0  0  0  0  0  0  0  0  0
    7.9070   -1.5610   22.5870 C   0  0  1  0  0  0  0  0  0  0  0  0
    7.8130   -0.9090   21.2080 C   0  0  0  0  0  0  0  0  0  0  0  0
    6.3850   -0.8270   20.9730 N   0  0  0  0  0  0  0  0  0  0  0  0
    5.8150   -0.1800   19.8580 C   0  0  0  0  0  0  0  0  0  0  0  0
    6.2780   -0.4430   18.5920 C   0  0  0  0  0  0  0  0  0  0  0  0
    5.8000    0.1240   17.4590 N   0  0  0  0  0  0  0  0  0  0  0  0
    4.8180    0.9860   17.5980 C   0  0  0  0  0  0  0  0  0  0  0  0
    4.2500    1.3540   18.8530 C   0  0  0  0  0  0  0  0  0  0  0  0
    3.2020    2.3090   18.9400 C   0  0  0  0  0  0  0  0  0  0  0  0
    2.6850    2.6590   20.1580 C   0  0  0  0  0  0  0  0  0  0  0  0
    3.1930    2.0840   21.3420 C   0  0  0  0  0  0  0  0  0  0  0  0
    4.2090    1.1630   21.2860 C   0  0  0  0  0  0  0  0  0  0  0  0
    4.7550    0.7660   20.0290 C   0  0  0  0  0  0  0  0  0  0  0  0
    4.5910    0.7310   22.2040 H   0  0  0  0  0  0  0  0  0  0  0  0
    2.7830    2.3840   22.3030 H   0  0  0  0  0  0  0  0  0  0  0  0
    1.8890    3.3960   20.2210 H   0  0  0  0  0  0  0  0  0  0  0  0
    2.8320    2.7570   18.0220 H   0  0  0  0  0  0  0  0  0  0  0  0
    4.4240    1.4500   16.6940 H   0  0  0  0  0  0  0  0  0  0  0  0
    7.0710   -1.1770   18.4570 H   0  0  0  0  0  0  0  0  0  0  0  0
    5.6650   -1.7390   21.7170 C   0  0  0  0  0  0  0  0  0  0  0  0
    4.5080   -2.0290   21.5150 O   0  0  0  0  0  0  0  0  0  0  0  0
    6.5940   -2.3730   22.7730 C   0  0  1  0  0  0  0  0  0  0  0  0
    6.7940   -3.8450   22.3830 C   0  0  0  0  0  0  0  0  0  0  0  0
    5.5610   -4.5830   22.5960 N   0  0  0  0  0  0  0  0  0  0  0  0
    5.2560   -5.6240   21.6390 C   0  0  0  0  0  0  0  0  0  0  0  0
    6.3510   -6.6840   21.7280 C   0  0  0  0  0  0  0  0  0  0  0  0
    7.4060   -6.6190   21.1110 O   0  0  0  0  0  0  0  0  0  0  0  0
    6.0970   -7.6270   22.6580 N   0  0  0  0  0  0  0  0  0  0  0  0
    7.0640   -8.6620   22.9200 C   0  0  0  0  0  0  0  0  0  0  0  0
    6.7160   -9.3050   23.7210 H   0  0  0  0  0  0  0  0  0  0  0  0
    7.1710   -9.2700   22.0310 H   0  0  0  0  0  0  0  0  0  0  0  0
    8.0400   -8.2550   23.2030 H   0  0  0  0  0  0  0  0  0  0  0  0
    5.1800   -7.6650   23.0810 H   0  0  0  0  0  0  0  0  0  0  0  0
    5.2200   -5.1750   20.6390 H   0  0  0  0  0  0  0  0  0  0  0  0
    4.2900   -6.0660   21.8990 H   0  0  0  0  0  0  0  0  0  0  0  0
    5.0110   -4.6470   23.8470 C   0  0  0  0  0  0  0  0  0  0  0  0
    4.3350   -5.5960   24.2290 O   0  0  0  0  0  0  0  0  0  0  0  0
    5.2710   -3.4330   24.6810 C   0  0  0  0  0  0  0  0  0  0  0  0
    4.7370   -3.3960   25.9670 C   0  0  0  0  0  0  0  0  0  0  0  0
    4.8050   -2.2440   26.7250 C   0  0  0  0  0  0  0  0  0  0  0  0
    5.4170   -1.1240   26.1640 C   0  0  0  0  0  0  0  0  0  0  0  0
    5.4410    0.3680   27.0570 Cl  0  0  0  0  0  0  0  0  0  0  0  0
    5.9950   -1.1570   24.9070 C   0  0  0  0  0  0  0  0  0  0  0  0
    5.9650   -2.3330   24.1530 C   0  0  0  0  0  0  0  0  0  0  0  0
    6.4400   -0.2530   24.5070 H   0  0  0  0  0  0  0  0  0  0  0  0
    4.3700   -2.1900   27.7180 H   0  0  0  0  0  0  0  0  0  0  0  0
    4.2480   -4.2880   26.3410 H   0  0  0  0  0  0  0  0  0  0  0  0
    7.0530   -3.9080   21.3290 H   0  0  0  0  0  0  0  0  0  0  0  0
    7.6220   -4.2860   22.9540 H   0  0  0  0  0  0  0  0  0  0  0  0
    8.2580    0.0900   21.1950 H   0  0  0  0  0  0  0  0  0  0  0  0
    8.3450   -1.5410   20.4850 H   0  0  0  0  0  0  0  0  0  0  0  0
    7.9530   -0.7710   23.3460 H   0  0  0  0  0  0  0  0  0  0  0  0
   10.0390   -3.5970   23.8800 H   0  0  0  0  0  0  0  0  0  0  0  0
    8.7970   -2.5960   24.6650 H   0  0  0  0  0  0  0  0  0  0  0  0
   11.4940   -1.6120   23.5330 H   0  0  0  0  0  0  0  0  0  0  0  0
   11.1060   -1.7920   25.2590 H   0  0  0  0  0  0  0  0  0  0  0  0
   10.2840   -0.5550   24.2830 H   0  0  0  0  0  0  0  0  0  0  0  0
  1  2  1  0  0  0  0
  1 58  1  0  0  0  0
  1 59  1  0  0  0  0
  1 60  1  0  0  0  0
  2  3  1  0  0  0  0
  2 56  1  0  0  0  0
  2 57  1  0  0  0  0
  3  4  1  0  0  0  0
  4  5  1  0  0  0  0
  4 25  1  0  0  0  0
  4 55  1  1  0  0  0
  5  6  1  0  0  0  0
  5 53  1  0  0  0  0
  5 54  1  0  0  0  0
  6  7  1  0  0  0  0
  6 23  1  0  0  0  0
  7  8  2  0  0  0  0
  7 16  1  0  0  0  0
  8  9  1  0  0  0  0
  8 22  1  0  0  0  0
  9 10  2  0  0  0  0
 10 11  1  0  0  0  0
 10 21  1  0  0  0  0
 11 12  2  0  0  0  0
 11 16  1  0  0  0  0
 12 13  1  0  0  0  0
 12 20  1  0  0  0  0
 13 14  2  0  0  0  0
 13 19  1  0  0  0  0
 14 15  1  0  0  0  0
 14 18  1  0  0  0  0
 15 16  2  0  0  0  0
 15 17  1  0  0  0  0
 23 24  2  0  0  0  0
 25 23  1  6  0  0  0
 25 26  1  0  0  0  0
 25 47  1  0  0  0  0
 26 27  1  0  0  0  0
 26 51  1  0  0  0  0
 26 52  1  0  0  0  0
 27 28  1  0  0  0  0
 27 39  1  0  0  0  0
 28 29  1  0  0  0  0
 28 37  1  0  0  0  0
 28 38  1  0  0  0  0
 29 30  2  0  0  0  0
 29 31  1  0  0  0  0
 31 32  1  0  0  0  0
 31 36  1  0  0  0  0
 32 33  1  0  0  0  0
 32 34  1  0  0  0  0
 32 35  1  0  0  0  0
 39 40  2  0  0  0  0
 39 41  1  0  0  0  0
 41 42  2  0  0  0  0
 41 47  1  0  0  0  0
 42 43  1  0  0  0  0
 42 50  1  0  0  0  0
 43 44  2  0  0  0  0
 43 49  1  0  0  0  0
 44 45  1  0  0  0  0
 44 46  1  0  0  0  0
 46 47  2  0  0  0  0
 46 48  1  0  0  0  0
M  END
>  <MODEL>
       1

$$$$
best_conformers_39.pdb
 OpenBabel02042510453D

 60 64  0  0  1  0  0  0  0  0999 V2000
   11.2720   -2.6540   22.2470 C   0  0  0  0  0  0  0  0  0  0  0  0
   10.2430   -1.6870   22.7750 C   0  0  0  0  0  0  0  0  0  0  0  0
    8.9710   -2.2020   22.4230 O   0  0  0  0  0  0  0  0  0  0  0  0
    7.9030   -1.3230   22.7200 C   0  0  1  0  0  0  0  0  0  0  0  0
    7.6630   -0.3890   21.5200 C   0  0  0  0  0  0  0  0  0  0  0  0
    6.4110   -0.8380   20.9600 N   0  0  0  0  0  0  0  0  0  0  0  0
    5.8030   -0.1950   19.8600 C   0  0  0  0  0  0  0  0  0  0  0  0
    6.2730   -0.4490   18.5960 C   0  0  0  0  0  0  0  0  0  0  0  0
    5.7930    0.1240   17.4680 N   0  0  0  0  0  0  0  0  0  0  0  0
    4.8120    0.9870   17.6090 C   0  0  0  0  0  0  0  0  0  0  0  0
    4.2430    1.3480   18.8670 C   0  0  0  0  0  0  0  0  0  0  0  0
    3.2000    2.3060   18.9570 C   0  0  0  0  0  0  0  0  0  0  0  0
    2.6830    2.6570   20.1740 C   0  0  0  0  0  0  0  0  0  0  0  0
    3.1820    2.0680   21.3560 C   0  0  0  0  0  0  0  0  0  0  0  0
    4.1880    1.1330   21.3040 C   0  0  0  0  0  0  0  0  0  0  0  0
    4.7420    0.7480   20.0410 C   0  0  0  0  0  0  0  0  0  0  0  0
    4.5670    0.7080   22.2330 H   0  0  0  0  0  0  0  0  0  0  0  0
    2.7690    2.3620   22.3170 H   0  0  0  0  0  0  0  0  0  0  0  0
    1.8850    3.3950   20.2420 H   0  0  0  0  0  0  0  0  0  0  0  0
    2.8360    2.7650   18.0440 H   0  0  0  0  0  0  0  0  0  0  0  0
    4.4230    1.4560   16.7050 H   0  0  0  0  0  0  0  0  0  0  0  0
    7.0680   -1.1820   18.4570 H   0  0  0  0  0  0  0  0  0  0  0  0
    5.7550   -1.7940   21.6890 C   0  0  0  0  0  0  0  0  0  0  0  0
    4.7040   -2.3000   21.3520 O   0  0  0  0  0  0  0  0  0  0  0  0
    6.5680   -2.0820   22.9630 C   0  0  1  0  0  0  0  0  0  0  0  0
    6.7870   -3.5940   23.1410 C   0  0  0  0  0  0  0  0  0  0  0  0
    5.5680   -4.2710   23.5500 N   0  0  0  0  0  0  0  0  0  0  0  0
    5.2150   -5.5100   22.8920 C   0  0  0  0  0  0  0  0  0  0  0  0
    6.0970   -6.6560   23.3550 C   0  0  0  0  0  0  0  0  0  0  0  0
    7.1410   -6.9540   22.7910 O   0  0  0  0  0  0  0  0  0  0  0  0
    5.6450   -7.2870   24.4610 N   0  0  0  0  0  0  0  0  0  0  0  0
    6.4670   -8.3230   25.0280 C   0  0  0  0  0  0  0  0  0  0  0  0
    6.0320   -8.7120   25.9460 H   0  0  0  0  0  0  0  0  0  0  0  0
    7.4640   -7.9340   25.2270 H   0  0  0  0  0  0  0  0  0  0  0  0
    6.5880   -9.1320   24.3100 H   0  0  0  0  0  0  0  0  0  0  0  0
    4.8760   -6.8980   24.9840 H   0  0  0  0  0  0  0  0  0  0  0  0
    4.1780   -5.7200   23.1510 H   0  0  0  0  0  0  0  0  0  0  0  0
    5.3390   -5.3870   21.8130 H   0  0  0  0  0  0  0  0  0  0  0  0
    4.8310   -3.8490   24.6200 C   0  0  0  0  0  0  0  0  0  0  0  0
    4.0520   -4.5840   25.2240 O   0  0  0  0  0  0  0  0  0  0  0  0
    5.0080   -2.4040   24.9660 C   0  0  0  0  0  0  0  0  0  0  0  0
    4.3100   -1.9140   26.0690 C   0  0  0  0  0  0  0  0  0  0  0  0
    4.3900   -0.5730   26.4000 C   0  0  0  0  0  0  0  0  0  0  0  0
    5.1630    0.2720   25.6040 C   0  0  0  0  0  0  0  0  0  0  0  0
    5.2280    1.9760   25.9800 Cl  0  0  0  0  0  0  0  0  0  0  0  0
    5.8690   -0.2060   24.5110 C   0  0  0  0  0  0  0  0  0  0  0  0
    5.8130   -1.5670   24.1820 C   0  0  0  0  0  0  0  0  0  0  0  0
    6.4660    0.4890   23.9240 H   0  0  0  0  0  0  0  0  0  0  0  0
    3.8460   -0.1640   27.2450 H   0  0  0  0  0  0  0  0  0  0  0  0
    3.7040   -2.6170   26.6350 H   0  0  0  0  0  0  0  0  0  0  0  0
    7.5690   -3.7420   23.8960 H   0  0  0  0  0  0  0  0  0  0  0  0
    7.1050   -4.0410   22.2010 H   0  0  0  0  0  0  0  0  0  0  0  0
    7.6040    0.6620   21.8300 H   0  0  0  0  0  0  0  0  0  0  0  0
    8.4710   -0.4880   20.7900 H   0  0  0  0  0  0  0  0  0  0  0  0
    8.1590   -0.7780   23.6410 H   0  0  0  0  0  0  0  0  0  0  0  0
   10.3290   -1.6260   23.8690 H   0  0  0  0  0  0  0  0  0  0  0  0
   10.3880   -0.6700   22.3820 H   0  0  0  0  0  0  0  0  0  0  0  0
   11.2020   -2.7610   21.1590 H   0  0  0  0  0  0  0  0  0  0  0  0
   12.2910   -2.3520   22.5140 H   0  0  0  0  0  0  0  0  0  0  0  0
   11.0690   -3.6270   22.7010 H   0  0  0  0  0  0  0  0  0  0  0  0
  1  2  1  0  0  0  0
  1 58  1  0  0  0  0
  1 59  1  0  0  0  0
  1 60  1  0  0  0  0
  2  3  1  0  0  0  0
  2 56  1  0  0  0  0
  2 57  1  0  0  0  0
  3  4  1  0  0  0  0
  4  5  1  0  0  0  0
  4 25  1  0  0  0  0
  4 55  1  1  0  0  0
  5  6  1  0  0  0  0
  5 53  1  0  0  0  0
  5 54  1  0  0  0  0
  6  7  1  0  0  0  0
  6 23  1  0  0  0  0
  7  8  2  0  0  0  0
  7 16  1  0  0  0  0
  8  9  1  0  0  0  0
  8 22  1  0  0  0  0
  9 10  2  0  0  0  0
 10 11  1  0  0  0  0
 10 21  1  0  0  0  0
 11 12  2  0  0  0  0
 11 16  1  0  0  0  0
 12 13  1  0  0  0  0
 12 20  1  0  0  0  0
 13 14  2  0  0  0  0
 13 19  1  0  0  0  0
 14 15  1  0  0  0  0
 14 18  1  0  0  0  0
 15 16  2  0  0  0  0
 15 17  1  0  0  0  0
 23 24  2  0  0  0  0
 25 23  1  6  0  0  0
 25 26  1  0  0  0  0
 25 47  1  0  0  0  0
 26 27  1  0  0  0  0
 26 51  1  0  0  0  0
 26 52  1  0  0  0  0
 27 28  1  0  0  0  0
 27 39  1  0  0  0  0
 28 29  1  0  0  0  0
 28 37  1  0  0  0  0
 28 38  1  0  0  0  0
 29 30  2  0  0  0  0
 29 31  1  0  0  0  0
 31 32  1  0  0  0  0
 31 36  1  0  0  0  0
 32 33  1  0  0  0  0
 32 34  1  0  0  0  0
 32 35  1  0  0  0  0
 39 40  2  0  0  0  0
 39 41  1  0  0  0  0
 41 42  2  0  0  0  0
 41 47  1  0  0  0  0
 42 43  1  0  0  0  0
 42 50  1  0  0  0  0
 43 44  2  0  0  0  0
 43 49  1  0  0  0  0
 44 45  1  0  0  0  0
 44 46  1  0  0  0  0
 46 47  2  0  0  0  0
 46 48  1  0  0  0  0
M  END
>  <MODEL>
       2

$$$$
best_conformers_39.pdb
 OpenBabel02042510453D

 60 64  0  0  1  0  0  0  0  0999 V2000
    8.3990   -4.9180   24.0910 C   0  0  0  0  0  0  0  0  0  0  0  0
    7.1630   -4.7220   23.2180 C   0  0  0  0  0  0  0  0  0  0  0  0
    6.6460   -3.4010   23.3050 O   0  0  0  0  0  0  0  0  0  0  0  0
    7.2400   -2.4660   22.4200 C   0  0  1  0  0  0  0  0  0  0  0  0
    6.3070   -2.1950   21.2390 C   0  0  0  0  0  0  0  0  0  0  0  0
    6.4580   -0.7800   20.9810 N   0  0  0  0  0  0  0  0  0  0  0  0
    5.8510   -0.1450   19.8650 C   0  0  0  0  0  0  0  0  0  0  0  0
    6.2580   -0.4540   18.5910 C   0  0  0  0  0  0  0  0  0  0  0  0
    5.7700    0.1160   17.4600 N   0  0  0  0  0  0  0  0  0  0  0  0
    4.8060    0.9980   17.6060 C   0  0  0  0  0  0  0  0  0  0  0  0
    4.2400    1.3680   18.8590 C   0  0  0  0  0  0  0  0  0  0  0  0
    3.1780    2.3110   18.9530 C   0  0  0  0  0  0  0  0  0  0  0  0
    2.6290    2.6230   20.1670 C   0  0  0  0  0  0  0  0  0  0  0  0
    3.1120    2.0000   21.3400 C   0  0  0  0  0  0  0  0  0  0  0  0
    4.1390    1.0940   21.2730 C   0  0  0  0  0  0  0  0  0  0  0  0
    4.7550    0.7690   20.0320 C   0  0  0  0  0  0  0  0  0  0  0  0
    4.4990    0.6280   22.1830 H   0  0  0  0  0  0  0  0  0  0  0  0
    2.6750    2.2510   22.3010 H   0  0  0  0  0  0  0  0  0  0  0  0
    1.8260    3.3510   20.2370 H   0  0  0  0  0  0  0  0  0  0  0  0
    2.8190    2.7790   18.0380 H   0  0  0  0  0  0  0  0  0  0  0  0
    4.4190    1.4610   16.6970 H   0  0  0  0  0  0  0  0  0  0  0  0
    7.0430   -1.1920   18.4310 H   0  0  0  0  0  0  0  0  0  0  0  0
    7.1100   -0.0890   21.9800 C   0  0  0  0  0  0  0  0  0  0  0  0
    7.2880    1.1130   21.9750 O   0  0  0  0  0  0  0  0  0  0  0  0
    7.5230   -1.0780   23.0810 C   0  0  1  0  0  0  0  0  0  0  0  0
    6.6570   -0.8220   24.3390 C   0  0  0  0  0  0  0  0  0  0  0  0
    7.1080   -1.5970   25.4820 N   0  0  0  0  0  0  0  0  0  0  0  0
    6.1310   -2.1680   26.3840 C   0  0  0  0  0  0  0  0  0  0  0  0
    5.5720   -1.1600   27.3950 C   0  0  0  0  0  0  0  0  0  0  0  0
    4.6700   -0.3880   27.0950 O   0  0  0  0  0  0  0  0  0  0  0  0
    6.1150   -1.1900   28.6380 N   0  0  0  0  0  0  0  0  0  0  0  0
    5.7050   -0.2040   29.6240 C   0  0  0  0  0  0  0  0  0  0  0  0
    4.6350   -0.2970   29.8530 H   0  0  0  0  0  0  0  0  0  0  0  0
    6.2880   -0.3610   30.5340 H   0  0  0  0  0  0  0  0  0  0  0  0
    5.8680    0.8170   29.2540 H   0  0  0  0  0  0  0  0  0  0  0  0
    6.9140   -1.7860   28.8080 H   0  0  0  0  0  0  0  0  0  0  0  0
    6.5890   -3.0300   26.8780 H   0  0  0  0  0  0  0  0  0  0  0  0
    5.2870   -2.5090   25.7790 H   0  0  0  0  0  0  0  0  0  0  0  0
    8.4220   -1.6630   25.8400 C   0  0  0  0  0  0  0  0  0  0  0  0
    8.7710   -2.1080   26.9250 O   0  0  0  0  0  0  0  0  0  0  0  0
    9.3980   -1.2080   24.8010 C   0  0  0  0  0  0  0  0  0  0  0  0
   10.7440   -1.1330   25.1500 C   0  0  0  0  0  0  0  0  0  0  0  0
   11.6930   -0.8030   24.2000 C   0  0  0  0  0  0  0  0  0  0  0  0
   11.2850   -0.5610   22.8910 C   0  0  0  0  0  0  0  0  0  0  0  0
   12.5050   -0.1660   21.7190 Cl  0  0  0  0  0  0  0  0  0  0  0  0
    9.9510   -0.6310   22.5260 C   0  0  0  0  0  0  0  0  0  0  0  0
    8.9810   -0.9350   23.4900 C   0  0  0  0  0  0  0  0  0  0  0  0
    9.6650   -0.4390   21.4970 H   0  0  0  0  0  0  0  0  0  0  0  0
   12.7470   -0.7460   24.4460 H   0  0  0  0  0  0  0  0  0  0  0  0
   11.0190   -1.3640   26.1740 H   0  0  0  0  0  0  0  0  0  0  0  0
    6.7060    0.2540   24.5610 H   0  0  0  0  0  0  0  0  0  0  0  0
    5.6190   -1.1080   24.1460 H   0  0  0  0  0  0  0  0  0  0  0  0
    6.5720   -2.7600   20.3480 H   0  0  0  0  0  0  0  0  0  0  0  0
    5.2800   -2.4610   21.5170 H   0  0  0  0  0  0  0  0  0  0  0  0
    8.2030   -2.8560   22.0620 H   0  0  0  0  0  0  0  0  0  0  0  0
    7.3840   -4.9820   22.1690 H   0  0  0  0  0  0  0  0  0  0  0  0
    6.3450   -5.3710   23.5490 H   0  0  0  0  0  0  0  0  0  0  0  0
    8.1720   -4.7080   25.1410 H   0  0  0  0  0  0  0  0  0  0  0  0
    8.7590   -5.9500   24.0250 H   0  0  0  0  0  0  0  0  0  0  0  0
    9.2180   -4.2540   23.7890 H   0  0  0  0  0  0  0  0  0  0  0  0
  1  2  1  0  0  0  0
  1 58  1  0  0  0  0
  1 59  1  0  0  0  0
  1 60  1  0  0  0  0
  2  3  1  0  0  0  0
  2 56  1  0  0  0  0
  2 57  1  0  0  0  0
  3  4  1  0  0  0  0
  4  5  1  0  0  0  0
  4 25  1  0  0  0  0
  4 55  1  6  0  0  0
  5  6  1  0  0  0  0
  5 53  1  0  0  0  0
  5 54  1  0  0  0  0
  6  7  1  0  0  0  0
  6 23  1  0  0  0  0
  7  8  2  0  0  0  0
  7 16  1  0  0  0  0
  8  9  1  0  0  0  0
  8 22  1  0  0  0  0
  9 10  2  0  0  0  0
 10 11  1  0  0  0  0
 10 21  1  0  0  0  0
 11 12  2  0  0  0  0
 11 16  1  0  0  0  0
 12 13  1  0  0  0  0
 12 20  1  0  0  0  0
 13 14  2  0  0  0  0
 13 19  1  0  0  0  0
 14 15  1  0  0  0  0
 14 18  1  0  0  0  0
 15 16  2  0  0  0  0
 15 17  1  0  0  0  0
 23 24  2  0  0  0  0
 25 23  1  6  0  0  0
 25 26  1  0  0  0  0
 25 47  1  0  0  0  0
 26 27  1  0  0  0  0
 26 51  1  0  0  0  0
 26 52  1  0  0  0  0
 27 28  1  0  0  0  0
 27 39  1  0  0  0  0
 28 29  1  0  0  0  0
 28 37  1  0  0  0  0
 28 38  1  0  0  0  0
 29 30  2  0  0  0  0
 29 31  1  0  0  0  0
 31 32  1  0  0  0  0
 31 36  1  0  0  0  0
 32 33  1  0  0  0  0
 32 34  1  0  0  0  0
 32 35  1  0  0  0  0
 39 40  2  0  0  0  0
 39 41  1  0  0  0  0
 41 42  2  0  0  0  0
 41 47  1  0  0  0  0
 42 43  1  0  0  0  0
 42 50  1  0  0  0  0
 43 44  2  0  0  0  0
 43 49  1  0  0  0  0
 44 45  1  0  0  0  0
 44 46  1  0  0  0  0
 46 47  2  0  0  0  0
 46 48  1  0  0  0  0
M  END
>  <MODEL>
       3

$$$$
