best_conformers_42.pdb
 OpenBabel02042510453D

 60 65  0  0  1  0  0  0  0  0999 V2000
    5.5420    0.1630   29.5230 C   0  0  0  0  0  0  0  0  0  0  0  0
    5.9220   -0.8820   28.6010 N   0  0  0  0  0  0  0  0  0  0  0  0
    5.4170   -0.8670   27.3390 C   0  0  0  0  0  0  0  0  0  0  0  0
    4.6000   -0.0430   26.9620 O   0  0  0  0  0  0  0  0  0  0  0  0
    5.9290   -1.9670   26.4200 C   0  0  0  0  0  0  0  0  0  0  0  0
    6.9280   -1.4790   25.4920 N   0  0  0  0  0  0  0  0  0  0  0  0
    6.5250   -0.7840   24.2860 C   0  0  0  0  0  0  0  0  0  0  0  0
    7.4590   -1.0740   23.0900 C   0  0  2  0  0  0  0  0  0  0  0  0
    7.0790   -0.1050   21.9660 C   0  0  0  0  0  0  0  0  0  0  0  0
    7.2700    1.0950   21.9280 O   0  0  0  0  0  0  0  0  0  0  0  0
    6.4310   -0.8010   20.9740 N   0  0  0  0  0  0  0  0  0  0  0  0
    5.8320   -0.1640   19.8690 C   0  0  0  0  0  0  0  0  0  0  0  0
    6.2680   -0.4670   18.6030 C   0  0  0  0  0  0  0  0  0  0  0  0
    5.7950    0.1070   17.4720 N   0  0  0  0  0  0  0  0  0  0  0  0
    4.8260    0.9830   17.6140 C   0  0  0  0  0  0  0  0  0  0  0  0
    4.2570    1.3540   18.8650 C   0  0  0  0  0  0  0  0  0  0  0  0
    3.1980    2.2950   18.9510 C   0  0  0  0  0  0  0  0  0  0  0  0
    2.6390    2.6110   20.1590 C   0  0  0  0  0  0  0  0  0  0  0  0
    3.1100    1.9970   21.3420 C   0  0  0  0  0  0  0  0  0  0  0  0
    4.1380    1.0900   21.2900 C   0  0  0  0  0  0  0  0  0  0  0  0
    4.7550    0.7610   20.0440 C   0  0  0  0  0  0  0  0  0  0  0  0
    4.4890    0.6310   22.2110 H   0  0  0  0  0  0  0  0  0  0  0  0
    2.6600    2.2510   22.2990 H   0  0  0  0  0  0  0  0  0  0  0  0
    1.8340    3.3400   20.2210 H   0  0  0  0  0  0  0  0  0  0  0  0
    2.8450    2.7590   18.0360 H   0  0  0  0  0  0  0  0  0  0  0  0
    4.4330    1.4420   16.7070 H   0  0  0  0  0  0  0  0  0  0  0  0
    7.0650   -1.2010   18.4710 H   0  0  0  0  0  0  0  0  0  0  0  0
    6.2560   -2.2040   21.2550 C   0  0  0  0  0  0  0  0  0  0  0  0
    7.2210   -2.4650   22.4150 C   0  0  2  0  0  0  0  0  0  0  0  0
    6.7500   -3.5900   23.3440 C   0  0  0  0  0  0  0  0  0  0  0  0
    6.6480   -4.8910   22.6400 C   0  0  0  0  0  0  0  0  0  0  0  0
    7.5900   -5.8150   22.6930 N   0  0  0  0  0  0  0  0  0  0  0  0
    7.1700   -6.7780   21.8840 N   0  0  0  0  0  0  0  0  0  0  0  0
    6.0160   -6.4410   21.3670 N   0  5  0  0  0  0  0  0  0  0  0  0
    5.6560   -5.2500   21.8310 N   0  0  0  0  0  0  0  0  0  0  0  0
    7.4640   -3.7250   24.1530 H   0  0  0  0  0  0  0  0  0  0  0  0
    5.7870   -3.3360   23.7840 H   0  0  0  0  0  0  0  0  0  0  0  0
    8.1830   -2.7830   21.9960 H   0  0  0  0  0  0  0  0  0  0  0  0
    6.4690   -2.8050   20.3730 H   0  0  0  0  0  0  0  0  0  0  0  0
    5.2220   -2.4320   21.5410 H   0  0  0  0  0  0  0  0  0  0  0  0
    8.8880   -0.8940   23.5520 C   0  0  0  0  0  0  0  0  0  0  0  0
    9.9030   -0.5990   22.6360 C   0  0  0  0  0  0  0  0  0  0  0  0
   11.2120   -0.4840   23.0760 C   0  0  0  0  0  0  0  0  0  0  0  0
   12.4760   -0.1170   21.9330 Cl  0  0  0  0  0  0  0  0  0  0  0  0
   11.5540   -0.6630   24.4180 C   0  0  0  0  0  0  0  0  0  0  0  0
   10.5570   -0.9870   25.3200 C   0  0  0  0  0  0  0  0  0  0  0  0
    9.2400   -1.1060   24.8870 C   0  0  0  0  0  0  0  0  0  0  0  0
    8.2310   -1.5690   25.8780 C   0  0  0  0  0  0  0  0  0  0  0  0
    8.5600   -2.0400   26.9580 O   0  0  0  0  0  0  0  0  0  0  0  0
   10.7570   -1.1660   26.3730 H   0  0  0  0  0  0  0  0  0  0  0  0
   12.5900   -0.5760   24.7290 H   0  0  0  0  0  0  0  0  0  0  0  0
    9.6720   -0.4650   21.5850 H   0  0  0  0  0  0  0  0  0  0  0  0
    6.5160    0.2980   24.4570 H   0  0  0  0  0  0  0  0  0  0  0  0
    5.5040   -1.0890   24.0460 H   0  0  0  0  0  0  0  0  0  0  0  0
    5.0630   -2.3400   25.8660 H   0  0  0  0  0  0  0  0  0  0  0  0
    6.4010   -2.7670   26.9940 H   0  0  0  0  0  0  0  0  0  0  0  0
    6.7280   -1.4550   28.7980 H   0  0  0  0  0  0  0  0  0  0  0  0
    6.0610    0.0320   30.4730 H   0  0  0  0  0  0  0  0  0  0  0  0
    5.7780    1.1450   29.1100 H   0  0  0  0  0  0  0  0  0  0  0  0
    4.4660    0.1390   29.7010 H   0  0  0  0  0  0  0  0  0  0  0  0
  1  2  1  0  0  0  0
  1 58  1  0  0  0  0
  1 59  1  0  0  0  0
  1 60  1  0  0  0  0
  2  3  1  0  0  0  0
  2 57  1  0  0  0  0
  3  4  2  0  0  0  0
  3  5  1  0  0  0  0
  5  6  1  0  0  0  0
  5 55  1  0  0  0  0
  5 56  1  0  0  0  0
  6  7  1  0  0  0  0
  6 48  1  0  0  0  0
  7  8  1  0  0  0  0
  7 53  1  0  0  0  0
  7 54  1  0  0  0  0
  8  9  1  6  0  0  0
  8 29  1  0  0  0  0
  8 41  1  0  0  0  0
  9 10  2  0  0  0  0
  9 11  1  0  0  0  0
 11 12  1  0  0  0  0
 11 28  1  0  0  0  0
 12 13  2  0  0  0  0
 12 21  1  0  0  0  0
 13 14  1  0  0  0  0
 13 27  1  0  0  0  0
 14 15  2  0  0  0  0
 15 16  1  0  0  0  0
 15 26  1  0  0  0  0
 16 17  2  0  0  0  0
 16 21  1  0  0  0  0
 17 18  1  0  0  0  0
 17 25  1  0  0  0  0
 18 19  2  0  0  0  0
 18 24  1  0  0  0  0
 19 20  1  0  0  0  0
 19 23  1  0  0  0  0
 20 21  2  0  0  0  0
 20 22  1  0  0  0  0
 28 29  1  0  0  0  0
 28 39  1  0  0  0  0
 28 40  1  0  0  0  0
 29 30  1  0  0  0  0
 29 38  1  6  0  0  0
 30 31  1  0  0  0  0
 30 36  1  0  0  0  0
 30 37  1  0  0  0  0
 31 32  1  0  0  0  0
 31 35  2  0  0  0  0
 32 33  2  0  0  0  0
 33 34  1  0  0  0  0
 34 35  1  0  0  0  0
 41 42  2  0  0  0  0
 41 47  1  0  0  0  0
 42 43  1  0  0  0  0
 42 52  1  0  0  0  0
 43 44  1  0  0  0  0
 43 45  2  0  0  0  0
 45 46  1  0  0  0  0
 45 51  1  0  0  0  0
 46 47  2  0  0  0  0
 46 50  1  0  0  0  0
 47 48  1  0  0  0  0
 48 49  2  0  0  0  0
M  CHG  1  34  -1
M  END
>  <MODEL>
       1

$$$$
best_conformers_42.pdb
 OpenBabel02042510453D

 60 65  0  0  1  0  0  0  0  0999 V2000
    5.5490    0.1930   29.5140 C   0  0  0  0  0  0  0  0  0  0  0  0
    5.9330   -0.8560   28.5970 N   0  0  0  0  0  0  0  0  0  0  0  0
    5.4240   -0.8530   27.3380 C   0  0  0  0  0  0  0  0  0  0  0  0
    4.6010   -0.0370   26.9580 O   0  0  0  0  0  0  0  0  0  0  0  0
    5.9420   -1.9560   26.4230 C   0  0  0  0  0  0  0  0  0  0  0  0
    6.9380   -1.4670   25.4920 N   0  0  0  0  0  0  0  0  0  0  0  0
    6.5320   -0.7750   24.2850 C   0  0  0  0  0  0  0  0  0  0  0  0
    7.4650   -1.0650   23.0880 C   0  0  2  0  0  0  0  0  0  0  0  0
    7.0820   -0.0980   21.9640 C   0  0  0  0  0  0  0  0  0  0  0  0
    7.2710    1.1010   21.9250 O   0  0  0  0  0  0  0  0  0  0  0  0
    6.4340   -0.7970   20.9750 N   0  0  0  0  0  0  0  0  0  0  0  0
    5.8330   -0.1630   19.8690 C   0  0  0  0  0  0  0  0  0  0  0  0
    6.2680   -0.4670   18.6030 C   0  0  0  0  0  0  0  0  0  0  0  0
    5.7940    0.1070   17.4720 N   0  0  0  0  0  0  0  0  0  0  0  0
    4.8250    0.9830   17.6130 C   0  0  0  0  0  0  0  0  0  0  0  0
    4.2560    1.3550   18.8650 C   0  0  0  0  0  0  0  0  0  0  0  0
    3.1980    2.2960   18.9510 C   0  0  0  0  0  0  0  0  0  0  0  0
    2.6390    2.6120   20.1600 C   0  0  0  0  0  0  0  0  0  0  0  0
    3.1110    1.9970   21.3420 C   0  0  0  0  0  0  0  0  0  0  0  0
    4.1390    1.0900   21.2890 C   0  0  0  0  0  0  0  0  0  0  0  0
    4.7550    0.7620   20.0430 C   0  0  0  0  0  0  0  0  0  0  0  0
    4.4900    0.6310   22.2100 H   0  0  0  0  0  0  0  0  0  0  0  0
    2.6610    2.2510   22.2990 H   0  0  0  0  0  0  0  0  0  0  0  0
    1.8340    3.3400   20.2220 H   0  0  0  0  0  0  0  0  0  0  0  0
    2.8440    2.7600   18.0360 H   0  0  0  0  0  0  0  0  0  0  0  0
    4.4320    1.4420   16.7060 H   0  0  0  0  0  0  0  0  0  0  0  0
    7.0650   -1.2000   18.4700 H   0  0  0  0  0  0  0  0  0  0  0  0
    6.2620   -2.2010   21.2580 C   0  0  0  0  0  0  0  0  0  0  0  0
    7.2290   -2.4580   22.4170 C   0  0  2  0  0  0  0  0  0  0  0  0
    6.7620   -3.5820   23.3500 C   0  0  0  0  0  0  0  0  0  0  0  0
    6.6570   -4.8850   22.6500 C   0  0  0  0  0  0  0  0  0  0  0  0
    5.6660   -5.2440   21.8390 N   0  0  0  0  0  0  0  0  0  0  0  0
    6.0230   -6.4390   21.3810 N   0  0  0  0  0  0  0  0  0  0  0  0
    7.1750   -6.7770   21.9020 N   0  5  0  0  0  0  0  0  0  0  0  0
    7.5970   -5.8120   22.7090 N   0  0  0  0  0  0  0  0  0  0  0  0
    5.7980   -3.3270   23.7900 H   0  0  0  0  0  0  0  0  0  0  0  0
    7.4760   -3.7140   24.1580 H   0  0  0  0  0  0  0  0  0  0  0  0
    8.1910   -2.7760   21.9980 H   0  0  0  0  0  0  0  0  0  0  0  0
    6.4760   -2.8010   20.3760 H   0  0  0  0  0  0  0  0  0  0  0  0
    5.2290   -2.4320   21.5440 H   0  0  0  0  0  0  0  0  0  0  0  0
    8.8950   -0.8810   23.5480 C   0  0  0  0  0  0  0  0  0  0  0  0
    9.9090   -0.5860   22.6300 C   0  0  0  0  0  0  0  0  0  0  0  0
   11.2180   -0.4660   23.0690 C   0  0  0  0  0  0  0  0  0  0  0  0
   12.4800   -0.0980   21.9250 Cl  0  0  0  0  0  0  0  0  0  0  0  0
   11.5610   -0.6420   24.4110 C   0  0  0  0  0  0  0  0  0  0  0  0
   10.5660   -0.9660   25.3140 C   0  0  0  0  0  0  0  0  0  0  0  0
    9.2480   -1.0880   24.8830 C   0  0  0  0  0  0  0  0  0  0  0  0
    8.2410   -1.5510   25.8770 C   0  0  0  0  0  0  0  0  0  0  0  0
    8.5730   -2.0190   26.9560 O   0  0  0  0  0  0  0  0  0  0  0  0
   10.7680   -1.1420   26.3670 H   0  0  0  0  0  0  0  0  0  0  0  0
   12.5970   -0.5510   24.7200 H   0  0  0  0  0  0  0  0  0  0  0  0
    9.6760   -0.4550   21.5790 H   0  0  0  0  0  0  0  0  0  0  0  0
    6.5200    0.3070   24.4550 H   0  0  0  0  0  0  0  0  0  0  0  0
    5.5100   -1.0820   24.0470 H   0  0  0  0  0  0  0  0  0  0  0  0
    5.0760   -2.3350   25.8710 H   0  0  0  0  0  0  0  0  0  0  0  0
    6.4170   -2.7510   27.0000 H   0  0  0  0  0  0  0  0  0  0  0  0
    6.7410   -1.4250   28.7980 H   0  0  0  0  0  0  0  0  0  0  0  0
    4.4740    0.1640   29.6950 H   0  0  0  0  0  0  0  0  0  0  0  0
    6.0720    0.0710   30.4630 H   0  0  0  0  0  0  0  0  0  0  0  0
    5.7780    1.1740   29.0940 H   0  0  0  0  0  0  0  0  0  0  0  0
  1  2  1  0  0  0  0
  1 58  1  0  0  0  0
  1 59  1  0  0  0  0
  1 60  1  0  0  0  0
  2  3  1  0  0  0  0
  2 57  1  0  0  0  0
  3  4  2  0  0  0  0
  3  5  1  0  0  0  0
  5  6  1  0  0  0  0
  5 55  1  0  0  0  0
  5 56  1  0  0  0  0
  6  7  1  0  0  0  0
  6 48  1  0  0  0  0
  7  8  1  0  0  0  0
  7 53  1  0  0  0  0
  7 54  1  0  0  0  0
  8  9  1  6  0  0  0
  8 29  1  0  0  0  0
  8 41  1  0  0  0  0
  9 10  2  0  0  0  0
  9 11  1  0  0  0  0
 11 12  1  0  0  0  0
 11 28  1  0  0  0  0
 12 13  2  0  0  0  0
 12 21  1  0  0  0  0
 13 14  1  0  0  0  0
 13 27  1  0  0  0  0
 14 15  2  0  0  0  0
 15 16  1  0  0  0  0
 15 26  1  0  0  0  0
 16 17  2  0  0  0  0
 16 21  1  0  0  0  0
 17 18  1  0  0  0  0
 17 25  1  0  0  0  0
 18 19  2  0  0  0  0
 18 24  1  0  0  0  0
 19 20  1  0  0  0  0
 19 23  1  0  0  0  0
 20 21  2  0  0  0  0
 20 22  1  0  0  0  0
 28 29  1  0  0  0  0
 28 39  1  0  0  0  0
 28 40  1  0  0  0  0
 29 30  1  0  0  0  0
 29 38  1  6  0  0  0
 30 31  1  0  0  0  0
 30 36  1  0  0  0  0
 30 37  1  0  0  0  0
 31 32  1  0  0  0  0
 31 35  2  0  0  0  0
 32 33  2  0  0  0  0
 33 34  1  0  0  0  0
 34 35  1  0  0  0  0
 41 42  2  0  0  0  0
 41 47  1  0  0  0  0
 42 43  1  0  0  0  0
 42 52  1  0  0  0  0
 43 44  1  0  0  0  0
 43 45  2  0  0  0  0
 45 46  1  0  0  0  0
 45 51  1  0  0  0  0
 46 47  2  0  0  0  0
 46 50  1  0  0  0  0
 47 48  1  0  0  0  0
 48 49  2  0  0  0  0
M  CHG  1  34  -1
M  END
>  <MODEL>
       2

$$$$
