best_conformers_76.pdb
 OpenBabel02042510453D

 61 65  0  0  1  0  0  0  0  0999 V2000
    9.1930   -2.2090   22.3540 C   0  0  0  0  0  0  0  0  0  0  0  0
    8.0110   -1.2810   22.6940 C   0  0  1  0  0  0  0  0  0  0  0  0
    7.7090   -0.3370   21.5030 C   0  0  0  0  0  0  0  0  0  0  0  0
    6.4490   -0.8140   20.9680 N   0  0  0  0  0  0  0  0  0  0  0  0
    5.8150   -0.1920   19.8570 C   0  0  0  0  0  0  0  0  0  0  0  0
    6.2630   -0.4540   18.5900 C   0  0  0  0  0  0  0  0  0  0  0  0
    5.7830    0.1310   17.4630 N   0  0  0  0  0  0  0  0  0  0  0  0
    4.8070    0.9960   17.6120 C   0  0  0  0  0  0  0  0  0  0  0  0
    4.2350    1.3580   18.8640 C   0  0  0  0  0  0  0  0  0  0  0  0
    3.1850    2.3140   18.9600 C   0  0  0  0  0  0  0  0  0  0  0  0
    2.6670    2.6530   20.1770 C   0  0  0  0  0  0  0  0  0  0  0  0
    3.1800    2.0610   21.3560 C   0  0  0  0  0  0  0  0  0  0  0  0
    4.1960    1.1410   21.2950 C   0  0  0  0  0  0  0  0  0  0  0  0
    4.7480    0.7510   20.0360 C   0  0  0  0  0  0  0  0  0  0  0  0
    4.5790    0.7020   22.2180 H   0  0  0  0  0  0  0  0  0  0  0  0
    2.7590    2.3420   22.3190 H   0  0  0  0  0  0  0  0  0  0  0  0
    1.8630    3.3840   20.2490 H   0  0  0  0  0  0  0  0  0  0  0  0
    2.8160    2.7710   18.0430 H   0  0  0  0  0  0  0  0  0  0  0  0
    4.4160    1.4530   16.7030 H   0  0  0  0  0  0  0  0  0  0  0  0
    7.0590   -1.1810   18.4340 H   0  0  0  0  0  0  0  0  0  0  0  0
    5.8030   -1.7480   21.7470 C   0  0  0  0  0  0  0  0  0  0  0  0
    4.7410   -2.2580   21.4700 O   0  0  0  0  0  0  0  0  0  0  0  0
    6.6510   -1.9890   23.0210 C   0  0  1  0  0  0  0  0  0  0  0  0
    6.8080   -3.5050   23.2950 C   0  0  0  0  0  0  0  0  0  0  0  0
    5.5720   -4.1390   23.7070 N   0  0  0  0  0  0  0  0  0  0  0  0
    5.0990   -5.3440   23.0390 C   0  0  0  0  0  0  0  0  0  0  0  0
    5.2500   -6.6220   23.8620 C   0  0  0  0  0  0  0  0  0  0  0  0
    6.6570   -6.8620   24.3060 N   0  3  0  0  0  0  0  0  0  0  0  0
    7.5740   -7.2590   23.1980 C   0  0  0  0  0  0  0  0  0  0  0  0
    7.1850   -8.1530   22.6950 H   0  0  0  0  0  0  0  0  0  0  0  0
    8.5590   -7.4920   23.6110 H   0  0  0  0  0  0  0  0  0  0  0  0
    7.6760   -6.4510   22.4740 H   0  0  0  0  0  0  0  0  0  0  0  0
    6.6800   -7.9160   25.3410 C   0  0  0  0  0  0  0  0  0  0  0  0
    7.7170   -8.0930   25.6070 H   0  0  0  0  0  0  0  0  0  0  0  0
    6.0920   -7.6090   26.2090 H   0  0  0  0  0  0  0  0  0  0  0  0
    6.2620   -8.8500   24.9410 H   0  0  0  0  0  0  0  0  0  0  0  0
    6.9810   -5.9630   24.7120 H   0  0  0  0  0  0  0  0  0  0  0  0
    4.9240   -7.4910   23.2760 H   0  0  0  0  0  0  0  0  0  0  0  0
    4.6360   -6.5590   24.7620 H   0  0  0  0  0  0  0  0  0  0  0  0
    5.6630   -5.4210   22.1030 H   0  0  0  0  0  0  0  0  0  0  0  0
    4.0390   -5.2130   22.8020 H   0  0  0  0  0  0  0  0  0  0  0  0
    4.7700   -3.5870   24.6570 C   0  0  0  0  0  0  0  0  0  0  0  0
    3.8540   -4.2170   25.1720 O   0  0  0  0  0  0  0  0  0  0  0  0
    5.0520   -2.1500   24.9970 C   0  0  0  0  0  0  0  0  0  0  0  0
    4.3600   -1.5840   26.0650 C   0  0  0  0  0  0  0  0  0  0  0  0
    4.5020   -0.2460   26.3650 C   0  0  0  0  0  0  0  0  0  0  0  0
    5.3360    0.5340   25.5660 C   0  0  0  0  0  0  0  0  0  0  0  0
    5.4750    2.2370   25.9060 Cl  0  0  0  0  0  0  0  0  0  0  0  0
    6.0430   -0.0120   24.5080 C   0  0  0  0  0  0  0  0  0  0  0  0
    5.9290   -1.3780   24.2210 C   0  0  0  0  0  0  0  0  0  0  0  0
    6.6570    0.6560   23.9100 H   0  0  0  0  0  0  0  0  0  0  0  0
    3.9660    0.2110   27.1870 H   0  0  0  0  0  0  0  0  0  0  0  0
    3.6960   -2.2320   26.6270 H   0  0  0  0  0  0  0  0  0  0  0  0
    7.5660   -3.6280   24.0850 H   0  0  0  0  0  0  0  0  0  0  0  0
    7.1460   -4.0090   22.3860 H   0  0  0  0  0  0  0  0  0  0  0  0
    7.6350    0.7190   21.8080 H   0  0  0  0  0  0  0  0  0  0  0  0
    8.4900   -0.3860   20.7340 H   0  0  0  0  0  0  0  0  0  0  0  0
    8.3170   -0.7010   23.5740 H   0  0  0  0  0  0  0  0  0  0  0  0
    8.9800   -2.8410   21.4830 H   0  0  0  0  0  0  0  0  0  0  0  0
   10.0830   -1.6100   22.1240 H   0  0  0  0  0  0  0  0  0  0  0  0
    9.4530   -2.8640   23.1920 H   0  0  0  0  0  0  0  0  0  0  0  0
  1  2  1  0  0  0  0
  1 59  1  0  0  0  0
  1 60  1  0  0  0  0
  1 61  1  0  0  0  0
  2  3  1  0  0  0  0
  2 23  1  0  0  0  0
  2 58  1  1  0  0  0
  3  4  1  0  0  0  0
  3 56  1  0  0  0  0
  3 57  1  0  0  0  0
  4  5  1  0  0  0  0
  4 21  1  0  0  0  0
  5  6  2  0  0  0  0
  5 14  1  0  0  0  0
  6  7  1  0  0  0  0
  6 20  1  0  0  0  0
  7  8  2  0  0  0  0
  8  9  1  0  0  0  0
  8 19  1  0  0  0  0
  9 10  2  0  0  0  0
  9 14  1  0  0  0  0
 10 11  1  0  0  0  0
 10 18  1  0  0  0  0
 11 12  2  0  0  0  0
 11 17  1  0  0  0  0
 12 13  1  0  0  0  0
 12 16  1  0  0  0  0
 13 14  2  0  0  0  0
 13 15  1  0  0  0  0
 21 22  2  0  0  0  0
 23 21  1  6  0  0  0
 23 24  1  0  0  0  0
 23 50  1  0  0  0  0
 24 25  1  0  0  0  0
 24 54  1  0  0  0  0
 24 55  1  0  0  0  0
 25 26  1  0  0  0  0
 25 42  1  0  0  0  0
 26 27  1  0  0  0  0
 26 40  1  0  0  0  0
 26 41  1  0  0  0  0
 27 28  1  0  0  0  0
 27 38  1  0  0  0  0
 27 39  1  0  0  0  0
 28 29  1  0  0  0  0
 28 33  1  0  0  0  0
 28 37  1  0  0  0  0
 29 30  1  0  0  0  0
 29 31  1  0  0  0  0
 29 32  1  0  0  0  0
 33 34  1  0  0  0  0
 33 35  1  0  0  0  0
 33 36  1  0  0  0  0
 42 43  2  0  0  0  0
 42 44  1  0  0  0  0
 44 45  2  0  0  0  0
 44 50  1  0  0  0  0
 45 46  1  0  0  0  0
 45 53  1  0  0  0  0
 46 47  2  0  0  0  0
 46 52  1  0  0  0  0
 47 48  1  0  0  0  0
 47 49  1  0  0  0  0
 49 50  2  0  0  0  0
 49 51  1  0  0  0  0
M  CHG  1  28   1
M  END
>  <MODEL>
       1

$$$$
best_conformers_76.pdb
 OpenBabel02042510453D

 61 65  0  0  1  0  0  0  0  0999 V2000
    6.8030   -3.6280   23.3230 C   0  0  0  0  0  0  0  0  0  0  0  0
    7.2650   -2.4760   22.4220 C   0  0  1  0  0  0  0  0  0  0  0  0
    6.2960   -2.2050   21.2580 C   0  0  0  0  0  0  0  0  0  0  0  0
    6.4570   -0.7880   20.9810 N   0  0  0  0  0  0  0  0  0  0  0  0
    5.8500   -0.1510   19.8670 C   0  0  0  0  0  0  0  0  0  0  0  0
    6.2590   -0.4570   18.5940 C   0  0  0  0  0  0  0  0  0  0  0  0
    5.7690    0.1150   17.4660 N   0  0  0  0  0  0  0  0  0  0  0  0
    4.8070    0.9970   17.6110 C   0  0  0  0  0  0  0  0  0  0  0  0
    4.2400    1.3660   18.8600 C   0  0  0  0  0  0  0  0  0  0  0  0
    3.1790    2.3100   18.9550 C   0  0  0  0  0  0  0  0  0  0  0  0
    2.6290    2.6230   20.1670 C   0  0  0  0  0  0  0  0  0  0  0  0
    3.1120    1.9970   21.3410 C   0  0  0  0  0  0  0  0  0  0  0  0
    4.1400    1.0910   21.2730 C   0  0  0  0  0  0  0  0  0  0  0  0
    4.7560    0.7650   20.0320 C   0  0  0  0  0  0  0  0  0  0  0  0
    4.4990    0.6230   22.1840 H   0  0  0  0  0  0  0  0  0  0  0  0
    2.6740    2.2510   22.3030 H   0  0  0  0  0  0  0  0  0  0  0  0
    1.8250    3.3530   20.2380 H   0  0  0  0  0  0  0  0  0  0  0  0
    2.8210    2.7780   18.0390 H   0  0  0  0  0  0  0  0  0  0  0  0
    4.4210    1.4580   16.7020 H   0  0  0  0  0  0  0  0  0  0  0  0
    7.0430   -1.1960   18.4320 H   0  0  0  0  0  0  0  0  0  0  0  0
    7.1000   -0.0920   21.9830 C   0  0  0  0  0  0  0  0  0  0  0  0
    7.2810    1.1100   21.9750 O   0  0  0  0  0  0  0  0  0  0  0  0
    7.4830   -1.0760   23.1020 C   0  0  1  0  0  0  0  0  0  0  0  0
    6.5430   -0.7870   24.2960 C   0  0  0  0  0  0  0  0  0  0  0  0
    6.9420   -1.4760   25.5090 N   0  0  0  0  0  0  0  0  0  0  0  0
    5.9020   -1.9560   26.4070 C   0  0  0  0  0  0  0  0  0  0  0  0
    5.1170   -0.8640   27.1440 C   0  0  0  0  0  0  0  0  0  0  0  0
    5.9350   -0.1550   28.1960 N   0  3  0  0  0  0  0  0  0  0  0  0
    5.1020    0.2010   29.3800 C   0  0  0  0  0  0  0  0  0  0  0  0
    5.7100    0.7370   30.1110 H   0  0  0  0  0  0  0  0  0  0  0  0
    4.2760    0.8550   29.0690 H   0  0  0  0  0  0  0  0  0  0  0  0
    4.6760   -0.6940   29.8400 H   0  0  0  0  0  0  0  0  0  0  0  0
    6.5700    1.0840   27.6610 C   0  0  0  0  0  0  0  0  0  0  0  0
    7.1670    1.5570   28.4430 H   0  0  0  0  0  0  0  0  0  0  0  0
    5.7950    1.7870   27.3300 H   0  0  0  0  0  0  0  0  0  0  0  0
    7.2050    0.8310   26.8120 H   0  0  0  0  0  0  0  0  0  0  0  0
    6.6930   -0.8140   28.4690 H   0  0  0  0  0  0  0  0  0  0  0  0
    4.2710   -1.3180   27.6660 H   0  0  0  0  0  0  0  0  0  0  0  0
    4.7290   -0.1190   26.4390 H   0  0  0  0  0  0  0  0  0  0  0  0
    6.3990   -2.5940   27.1420 H   0  0  0  0  0  0  0  0  0  0  0  0
    5.1900   -2.5590   25.8260 H   0  0  0  0  0  0  0  0  0  0  0  0
    8.2500   -1.5590   25.8950 C   0  0  0  0  0  0  0  0  0  0  0  0
    8.5720   -1.9810   26.9900 O   0  0  0  0  0  0  0  0  0  0  0  0
    9.2760   -1.1180   24.8930 C   0  0  0  0  0  0  0  0  0  0  0  0
   10.6090   -1.0160   25.2910 C   0  0  0  0  0  0  0  0  0  0  0  0
   11.5960   -0.7040   24.3740 C   0  0  0  0  0  0  0  0  0  0  0  0
   11.2370   -0.5100   23.0410 C   0  0  0  0  0  0  0  0  0  0  0  0
   12.4790   -0.1320   21.8840 Cl  0  0  0  0  0  0  0  0  0  0  0  0
    9.9210   -0.6140   22.6270 C   0  0  0  0  0  0  0  0  0  0  0  0
    8.9160   -0.8930   23.5610 C   0  0  0  0  0  0  0  0  0  0  0  0
    9.6750   -0.4630   21.5810 H   0  0  0  0  0  0  0  0  0  0  0  0
   12.6400   -0.6250   24.6600 H   0  0  0  0  0  0  0  0  0  0  0  0
   10.8520   -1.2150   26.3280 H   0  0  0  0  0  0  0  0  0  0  0  0
    6.5530    0.3050   24.4520 H   0  0  0  0  0  0  0  0  0  0  0  0
    5.5190   -1.1080   24.0610 H   0  0  0  0  0  0  0  0  0  0  0  0
    6.5320   -2.7840   20.3640 H   0  0  0  0  0  0  0  0  0  0  0  0
    5.2550   -2.4440   21.5320 H   0  0  0  0  0  0  0  0  0  0  0  0
    8.2460   -2.7390   22.0020 H   0  0  0  0  0  0  0  0  0  0  0  0
    7.4770   -3.7650   24.1760 H   0  0  0  0  0  0  0  0  0  0  0  0
    6.7620   -4.5720   22.7630 H   0  0  0  0  0  0  0  0  0  0  0  0
    5.7970   -3.4410   23.7240 H   0  0  0  0  0  0  0  0  0  0  0  0
  1  2  1  0  0  0  0
  1 59  1  0  0  0  0
  1 60  1  0  0  0  0
  1 61  1  0  0  0  0
  2  3  1  0  0  0  0
  2 23  1  0  0  0  0
  2 58  1  6  0  0  0
  3  4  1  0  0  0  0
  3 56  1  0  0  0  0
  3 57  1  0  0  0  0
  4  5  1  0  0  0  0
  4 21  1  0  0  0  0
  5  6  2  0  0  0  0
  5 14  1  0  0  0  0
  6  7  1  0  0  0  0
  6 20  1  0  0  0  0
  7  8  2  0  0  0  0
  8  9  1  0  0  0  0
  8 19  1  0  0  0  0
  9 10  2  0  0  0  0
  9 14  1  0  0  0  0
 10 11  1  0  0  0  0
 10 18  1  0  0  0  0
 11 12  2  0  0  0  0
 11 17  1  0  0  0  0
 12 13  1  0  0  0  0
 12 16  1  0  0  0  0
 13 14  2  0  0  0  0
 13 15  1  0  0  0  0
 21 22  2  0  0  0  0
 23 21  1  6  0  0  0
 23 24  1  0  0  0  0
 23 50  1  0  0  0  0
 24 25  1  0  0  0  0
 24 54  1  0  0  0  0
 24 55  1  0  0  0  0
 25 26  1  0  0  0  0
 25 42  1  0  0  0  0
 26 27  1  0  0  0  0
 26 40  1  0  0  0  0
 26 41  1  0  0  0  0
 27 28  1  0  0  0  0
 27 38  1  0  0  0  0
 27 39  1  0  0  0  0
 28 29  1  0  0  0  0
 28 33  1  0  0  0  0
 28 37  1  0  0  0  0
 29 30  1  0  0  0  0
 29 31  1  0  0  0  0
 29 32  1  0  0  0  0
 33 34  1  0  0  0  0
 33 35  1  0  0  0  0
 33 36  1  0  0  0  0
 42 43  2  0  0  0  0
 42 44  1  0  0  0  0
 44 45  2  0  0  0  0
 44 50  1  0  0  0  0
 45 46  1  0  0  0  0
 45 53  1  0  0  0  0
 46 47  2  0  0  0  0
 46 52  1  0  0  0  0
 47 48  1  0  0  0  0
 47 49  1  0  0  0  0
 49 50  2  0  0  0  0
 49 51  1  0  0  0  0
M  CHG  1  28   1
M  END
>  <MODEL>
       2

$$$$
best_conformers_76.pdb
 OpenBabel02042510453D

 61 65  0  0  1  0  0  0  0  0999 V2000
    8.9990   -2.6520   22.2030 C   0  0  0  0  0  0  0  0  0  0  0  0
    7.9620   -1.5840   22.5970 C   0  0  1  0  0  0  0  0  0  0  0  0
    7.7390   -0.5940   21.4250 C   0  0  0  0  0  0  0  0  0  0  0  0
    6.3960   -0.8730   20.9580 N   0  0  0  0  0  0  0  0  0  0  0  0
    5.8030   -0.2100   19.8550 C   0  0  0  0  0  0  0  0  0  0  0  0
    6.2610   -0.4620   18.5880 C   0  0  0  0  0  0  0  0  0  0  0  0
    5.7890    0.1300   17.4640 N   0  0  0  0  0  0  0  0  0  0  0  0
    4.8130    0.9960   17.6150 C   0  0  0  0  0  0  0  0  0  0  0  0
    4.2410    1.3560   18.8680 C   0  0  0  0  0  0  0  0  0  0  0  0
    3.1950    2.3170   18.9600 C   0  0  0  0  0  0  0  0  0  0  0  0
    2.6810    2.6670   20.1760 C   0  0  0  0  0  0  0  0  0  0  0  0
    3.1990    2.0850   21.3560 C   0  0  0  0  0  0  0  0  0  0  0  0
    4.2100    1.1590   21.2960 C   0  0  0  0  0  0  0  0  0  0  0  0
    4.7490    0.7480   20.0400 C   0  0  0  0  0  0  0  0  0  0  0  0
    4.5960    0.7270   22.2220 H   0  0  0  0  0  0  0  0  0  0  0  0
    2.7790    2.3720   22.3180 H   0  0  0  0  0  0  0  0  0  0  0  0
    1.8770    3.4010   20.2450 H   0  0  0  0  0  0  0  0  0  0  0  0
    2.8250    2.7690   18.0410 H   0  0  0  0  0  0  0  0  0  0  0  0
    4.4210    1.4520   16.7070 H   0  0  0  0  0  0  0  0  0  0  0  0
    7.0580   -1.1890   18.4350 H   0  0  0  0  0  0  0  0  0  0  0  0
    5.6820   -1.7450   21.7420 C   0  0  0  0  0  0  0  0  0  0  0  0
    4.5590   -2.1300   21.4820 O   0  0  0  0  0  0  0  0  0  0  0  0
    6.5340   -2.1150   22.9760 C   0  0  1  0  0  0  0  0  0  0  0  0
    6.4970   -3.6410   23.2120 C   0  0  0  0  0  0  0  0  0  0  0  0
    5.1980   -4.1020   23.6540 N   0  0  0  0  0  0  0  0  0  0  0  0
    4.5910   -5.2290   22.9610 C   0  0  0  0  0  0  0  0  0  0  0  0
    5.2430   -6.5910   23.2170 C   0  0  0  0  0  0  0  0  0  0  0  0
    4.9790   -7.0660   24.6130 N   0  3  0  0  0  0  0  0  0  0  0  0
    6.0400   -6.6440   25.5370 C   0  0  0  0  0  0  0  0  0  0  0  0
    6.1260   -5.5580   25.5700 H   0  0  0  0  0  0  0  0  0  0  0  0
    5.7750   -7.0320   26.5280 H   0  0  0  0  0  0  0  0  0  0  0  0
    7.0080   -7.0770   25.2400 H   0  0  0  0  0  0  0  0  0  0  0  0
    4.9010   -8.5410   24.7130 C   0  0  0  0  0  0  0  0  0  0  0  0
    5.8440   -8.9770   24.3550 H   0  0  0  0  0  0  0  0  0  0  0  0
    4.0760   -8.9430   24.1240 H   0  0  0  0  0  0  0  0  0  0  0  0
    4.7860   -8.8150   25.7640 H   0  0  0  0  0  0  0  0  0  0  0  0
    4.1050   -6.6070   24.9320 H   0  0  0  0  0  0  0  0  0  0  0  0
    6.3320   -6.5510   23.0710 H   0  0  0  0  0  0  0  0  0  0  0  0
    4.8250   -7.3480   22.5450 H   0  0  0  0  0  0  0  0  0  0  0  0
    4.6100   -5.0030   21.8890 H   0  0  0  0  0  0  0  0  0  0  0  0
    3.5630   -5.2710   23.3270 H   0  0  0  0  0  0  0  0  0  0  0  0
    4.5570   -3.5150   24.6980 C   0  0  0  0  0  0  0  0  0  0  0  0
    3.6730   -4.0970   25.3190 O   0  0  0  0  0  0  0  0  0  0  0  0
    5.0150   -2.1150   25.0270 C   0  0  0  0  0  0  0  0  0  0  0  0
    4.4580   -1.4770   26.1330 C   0  0  0  0  0  0  0  0  0  0  0  0
    4.7780   -0.1640   26.4250 C   0  0  0  0  0  0  0  0  0  0  0  0
    5.6580    0.5180   25.5880 C   0  0  0  0  0  0  0  0  0  0  0  0
    6.0250    2.1870   25.9240 Cl  0  0  0  0  0  0  0  0  0  0  0  0
    6.2370   -0.1010   24.4940 C   0  0  0  0  0  0  0  0  0  0  0  0
    5.9400   -1.4420   24.2100 C   0  0  0  0  0  0  0  0  0  0  0  0
    6.9010    0.4870   23.8670 H   0  0  0  0  0  0  0  0  0  0  0  0
    4.3460    0.3520   27.2740 H   0  0  0  0  0  0  0  0  0  0  0  0
    3.7540   -2.0450   26.7320 H   0  0  0  0  0  0  0  0  0  0  0  0
    7.2630   -3.8940   23.9670 H   0  0  0  0  0  0  0  0  0  0  0  0
    6.7030   -4.1600   22.2770 H   0  0  0  0  0  0  0  0  0  0  0  0
    8.4640   -0.7540   20.6180 H   0  0  0  0  0  0  0  0  0  0  0  0
    7.8350    0.4590   21.7320 H   0  0  0  0  0  0  0  0  0  0  0  0
    8.3760   -1.0600   23.4680 H   0  0  0  0  0  0  0  0  0  0  0  0
    9.2090   -3.3430   23.0250 H   0  0  0  0  0  0  0  0  0  0  0  0
    9.9480   -2.1730   21.9340 H   0  0  0  0  0  0  0  0  0  0  0  0
    8.6710   -3.2430   21.3410 H   0  0  0  0  0  0  0  0  0  0  0  0
  1  2  1  0  0  0  0
  1 59  1  0  0  0  0
  1 60  1  0  0  0  0
  1 61  1  0  0  0  0
  2  3  1  0  0  0  0
  2 23  1  0  0  0  0
  2 58  1  1  0  0  0
  3  4  1  0  0  0  0
  3 56  1  0  0  0  0
  3 57  1  0  0  0  0
  4  5  1  0  0  0  0
  4 21  1  0  0  0  0
  5  6  2  0  0  0  0
  5 14  1  0  0  0  0
  6  7  1  0  0  0  0
  6 20  1  0  0  0  0
  7  8  2  0  0  0  0
  8  9  1  0  0  0  0
  8 19  1  0  0  0  0
  9 10  2  0  0  0  0
  9 14  1  0  0  0  0
 10 11  1  0  0  0  0
 10 18  1  0  0  0  0
 11 12  2  0  0  0  0
 11 17  1  0  0  0  0
 12 13  1  0  0  0  0
 12 16  1  0  0  0  0
 13 14  2  0  0  0  0
 13 15  1  0  0  0  0
 21 22  2  0  0  0  0
 23 21  1  6  0  0  0
 23 24  1  0  0  0  0
 23 50  1  0  0  0  0
 24 25  1  0  0  0  0
 24 54  1  0  0  0  0
 24 55  1  0  0  0  0
 25 26  1  0  0  0  0
 25 42  1  0  0  0  0
 26 27  1  0  0  0  0
 26 40  1  0  0  0  0
 26 41  1  0  0  0  0
 27 28  1  0  0  0  0
 27 38  1  0  0  0  0
 27 39  1  0  0  0  0
 28 29  1  0  0  0  0
 28 33  1  0  0  0  0
 28 37  1  0  0  0  0
 29 30  1  0  0  0  0
 29 31  1  0  0  0  0
 29 32  1  0  0  0  0
 33 34  1  0  0  0  0
 33 35  1  0  0  0  0
 33 36  1  0  0  0  0
 42 43  2  0  0  0  0
 42 44  1  0  0  0  0
 44 45  2  0  0  0  0
 44 50  1  0  0  0  0
 45 46  1  0  0  0  0
 45 53  1  0  0  0  0
 46 47  2  0  0  0  0
 46 52  1  0  0  0  0
 47 48  1  0  0  0  0
 47 49  1  0  0  0  0
 49 50  2  0  0  0  0
 49 51  1  0  0  0  0
M  CHG  1  28   1
M  END
>  <MODEL>
       3

$$$$
best_conformers_76.pdb
 OpenBabel02042510453D

 61 65  0  0  1  0  0  0  0  0999 V2000
    8.9940   -2.6610   22.2040 C   0  0  0  0  0  0  0  0  0  0  0  0
    7.9650   -1.5840   22.5970 C   0  0  1  0  0  0  0  0  0  0  0  0
    7.7420   -0.5990   21.4210 C   0  0  0  0  0  0  0  0  0  0  0  0
    6.3960   -0.8730   20.9580 N   0  0  0  0  0  0  0  0  0  0  0  0
    5.8020   -0.2100   19.8560 C   0  0  0  0  0  0  0  0  0  0  0  0
    6.2600   -0.4620   18.5880 C   0  0  0  0  0  0  0  0  0  0  0  0
    5.7880    0.1300   17.4640 N   0  0  0  0  0  0  0  0  0  0  0  0
    4.8120    0.9960   17.6140 C   0  0  0  0  0  0  0  0  0  0  0  0
    4.2400    1.3580   18.8680 C   0  0  0  0  0  0  0  0  0  0  0  0
    3.1940    2.3190   18.9590 C   0  0  0  0  0  0  0  0  0  0  0  0
    2.6800    2.6700   20.1760 C   0  0  0  0  0  0  0  0  0  0  0  0
    3.2000    2.0870   21.3560 C   0  0  0  0  0  0  0  0  0  0  0  0
    4.2120    1.1610   21.2960 C   0  0  0  0  0  0  0  0  0  0  0  0
    4.7490    0.7500   20.0380 C   0  0  0  0  0  0  0  0  0  0  0  0
    4.5980    0.7290   22.2200 H   0  0  0  0  0  0  0  0  0  0  0  0
    2.7820    2.3740   22.3180 H   0  0  0  0  0  0  0  0  0  0  0  0
    1.8780    3.4020   20.2450 H   0  0  0  0  0  0  0  0  0  0  0  0
    2.8240    2.7700   18.0410 H   0  0  0  0  0  0  0  0  0  0  0  0
    4.4200    1.4520   16.7060 H   0  0  0  0  0  0  0  0  0  0  0  0
    7.0560   -1.1890   18.4330 H   0  0  0  0  0  0  0  0  0  0  0  0
    5.6810   -1.7370   21.7500 C   0  0  0  0  0  0  0  0  0  0  0  0
    4.5550   -2.1190   21.4960 O   0  0  0  0  0  0  0  0  0  0  0  0
    6.5360   -2.1040   22.9840 C   0  0  1  0  0  0  0  0  0  0  0  0
    6.4880   -3.6280   23.2320 C   0  0  0  0  0  0  0  0  0  0  0  0
    5.1880   -4.0800   23.6750 N   0  0  0  0  0  0  0  0  0  0  0  0
    4.5740   -5.2100   22.9940 C   0  0  0  0  0  0  0  0  0  0  0  0
    5.2170   -6.5760   23.2570 C   0  0  0  0  0  0  0  0  0  0  0  0
    4.9460   -7.0390   24.6560 N   0  3  0  0  0  0  0  0  0  0  0  0
    4.8680   -8.5140   24.7740 C   0  0  0  0  0  0  0  0  0  0  0  0
    4.0420   -8.9210   24.1900 H   0  0  0  0  0  0  0  0  0  0  0  0
    4.7550   -8.7730   25.8270 H   0  0  0  0  0  0  0  0  0  0  0  0
    5.8110   -8.9540   24.4230 H   0  0  0  0  0  0  0  0  0  0  0  0
    6.0050   -6.6040   25.5760 C   0  0  0  0  0  0  0  0  0  0  0  0
    5.7330   -6.9730   26.5720 H   0  0  0  0  0  0  0  0  0  0  0  0
    6.9710   -7.0500   25.2910 H   0  0  0  0  0  0  0  0  0  0  0  0
    6.0980   -5.5180   25.5900 H   0  0  0  0  0  0  0  0  0  0  0  0
    4.0730   -6.5730   24.9690 H   0  0  0  0  0  0  0  0  0  0  0  0
    4.7980   -7.3370   22.5900 H   0  0  0  0  0  0  0  0  0  0  0  0
    6.3060   -6.5400   23.1180 H   0  0  0  0  0  0  0  0  0  0  0  0
    3.5480   -5.2450   23.3610 H   0  0  0  0  0  0  0  0  0  0  0  0
    4.5940   -4.9940   21.9190 H   0  0  0  0  0  0  0  0  0  0  0  0
    4.5530   -3.4800   24.7170 C   0  0  0  0  0  0  0  0  0  0  0  0
    3.6640   -4.0540   25.3430 O   0  0  0  0  0  0  0  0  0  0  0  0
    5.0200   -2.0820   25.0360 C   0  0  0  0  0  0  0  0  0  0  0  0
    4.4690   -1.4310   26.1390 C   0  0  0  0  0  0  0  0  0  0  0  0
    4.7970   -0.1170   26.4220 C   0  0  0  0  0  0  0  0  0  0  0  0
    5.6800    0.5510   25.5790 C   0  0  0  0  0  0  0  0  0  0  0  0
    6.0580    2.2200   25.9040 Cl  0  0  0  0  0  0  0  0  0  0  0  0
    6.2530   -0.0790   24.4890 C   0  0  0  0  0  0  0  0  0  0  0  0
    5.9480   -1.4190   24.2160 C   0  0  0  0  0  0  0  0  0  0  0  0
    6.9190    0.5020   23.8570 H   0  0  0  0  0  0  0  0  0  0  0  0
    4.3680    0.4060   27.2680 H   0  0  0  0  0  0  0  0  0  0  0  0
    3.7620   -1.9880   26.7430 H   0  0  0  0  0  0  0  0  0  0  0  0
    7.2550   -3.8820   23.9850 H   0  0  0  0  0  0  0  0  0  0  0  0
    6.6900   -4.1560   22.3000 H   0  0  0  0  0  0  0  0  0  0  0  0
    8.4640   -0.7670   20.6120 H   0  0  0  0  0  0  0  0  0  0  0  0
    7.8470    0.4550   21.7220 H   0  0  0  0  0  0  0  0  0  0  0  0
    8.3850   -1.0580   23.4620 H   0  0  0  0  0  0  0  0  0  0  0  0
    9.9450   -2.1880   21.9280 H   0  0  0  0  0  0  0  0  0  0  0  0
    9.2030   -3.3490   23.0280 H   0  0  0  0  0  0  0  0  0  0  0  0
    8.6580   -3.2540   21.3460 H   0  0  0  0  0  0  0  0  0  0  0  0
  1  2  1  0  0  0  0
  1 59  1  0  0  0  0
  1 60  1  0  0  0  0
  1 61  1  0  0  0  0
  2  3  1  0  0  0  0
  2 23  1  0  0  0  0
  2 58  1  1  0  0  0
  3  4  1  0  0  0  0
  3 56  1  0  0  0  0
  3 57  1  0  0  0  0
  4  5  1  0  0  0  0
  4 21  1  0  0  0  0
  5  6  2  0  0  0  0
  5 14  1  0  0  0  0
  6  7  1  0  0  0  0
  6 20  1  0  0  0  0
  7  8  2  0  0  0  0
  8  9  1  0  0  0  0
  8 19  1  0  0  0  0
  9 10  2  0  0  0  0
  9 14  1  0  0  0  0
 10 11  1  0  0  0  0
 10 18  1  0  0  0  0
 11 12  2  0  0  0  0
 11 17  1  0  0  0  0
 12 13  1  0  0  0  0
 12 16  1  0  0  0  0
 13 14  2  0  0  0  0
 13 15  1  0  0  0  0
 21 22  2  0  0  0  0
 23 21  1  6  0  0  0
 23 24  1  0  0  0  0
 23 50  1  0  0  0  0
 24 25  1  0  0  0  0
 24 54  1  0  0  0  0
 24 55  1  0  0  0  0
 25 26  1  0  0  0  0
 25 42  1  0  0  0  0
 26 27  1  0  0  0  0
 26 40  1  0  0  0  0
 26 41  1  0  0  0  0
 27 28  1  0  0  0  0
 27 38  1  0  0  0  0
 27 39  1  0  0  0  0
 28 29  1  0  0  0  0
 28 33  1  0  0  0  0
 28 37  1  0  0  0  0
 29 30  1  0  0  0  0
 29 31  1  0  0  0  0
 29 32  1  0  0  0  0
 33 34  1  0  0  0  0
 33 35  1  0  0  0  0
 33 36  1  0  0  0  0
 42 43  2  0  0  0  0
 42 44  1  0  0  0  0
 44 45  2  0  0  0  0
 44 50  1  0  0  0  0
 45 46  1  0  0  0  0
 45 53  1  0  0  0  0
 46 47  2  0  0  0  0
 46 52  1  0  0  0  0
 47 48  1  0  0  0  0
 47 49  1  0  0  0  0
 49 50  2  0  0  0  0
 49 51  1  0  0  0  0
M  CHG  1  28   1
M  END
>  <MODEL>
       4

$$$$
best_conformers_76.pdb
 OpenBabel02042510453D

 61 65  0  0  1  0  0  0  0  0999 V2000
    6.8110   -3.6340   23.3280 C   0  0  0  0  0  0  0  0  0  0  0  0
    7.2590   -2.4750   22.4290 C   0  0  1  0  0  0  0  0  0  0  0  0
    6.2900   -2.2070   21.2660 C   0  0  0  0  0  0  0  0  0  0  0  0
    6.4600   -0.7910   20.9830 N   0  0  0  0  0  0  0  0  0  0  0  0
    5.8490   -0.1520   19.8670 C   0  0  0  0  0  0  0  0  0  0  0  0
    6.2550   -0.4560   18.5910 C   0  0  0  0  0  0  0  0  0  0  0  0
    5.7640    0.1180   17.4640 N   0  0  0  0  0  0  0  0  0  0  0  0
    4.8030    1.0000   17.6060 C   0  0  0  0  0  0  0  0  0  0  0  0
    4.2370    1.3680   18.8560 C   0  0  0  0  0  0  0  0  0  0  0  0
    3.1770    2.3120   18.9530 C   0  0  0  0  0  0  0  0  0  0  0  0
    2.6300    2.6250   20.1670 C   0  0  0  0  0  0  0  0  0  0  0  0
    3.1150    1.9980   21.3410 C   0  0  0  0  0  0  0  0  0  0  0  0
    4.1420    1.0910   21.2700 C   0  0  0  0  0  0  0  0  0  0  0  0
    4.7550    0.7660   20.0280 C   0  0  0  0  0  0  0  0  0  0  0  0
    4.5030    0.6190   22.1790 H   0  0  0  0  0  0  0  0  0  0  0  0
    2.6770    2.2500   22.3040 H   0  0  0  0  0  0  0  0  0  0  0  0
    1.8240    3.3530   20.2420 H   0  0  0  0  0  0  0  0  0  0  0  0
    2.8150    2.7810   18.0400 H   0  0  0  0  0  0  0  0  0  0  0  0
    4.4170    1.4630   16.6990 H   0  0  0  0  0  0  0  0  0  0  0  0
    7.0390   -1.1930   18.4270 H   0  0  0  0  0  0  0  0  0  0  0  0
    7.1060   -0.0990   21.9890 C   0  0  0  0  0  0  0  0  0  0  0  0
    7.2940    1.1000   21.9780 O   0  0  0  0  0  0  0  0  0  0  0  0
    7.4760   -1.0820   23.1150 C   0  0  1  0  0  0  0  0  0  0  0  0
    6.5190   -0.7820   24.2970 C   0  0  0  0  0  0  0  0  0  0  0  0
    6.9160   -1.4050   25.5490 N   0  0  0  0  0  0  0  0  0  0  0  0
    5.9080   -1.6310   26.5910 C   0  0  0  0  0  0  0  0  0  0  0  0
    5.6050   -3.1170   26.8720 C   0  0  0  0  0  0  0  0  0  0  0  0
    4.2950   -3.5790   26.2850 N   0  3  0  0  0  0  0  0  0  0  0  0
    3.1350   -3.2030   27.1450 C   0  0  0  0  0  0  0  0  0  0  0  0
    3.2190   -3.7080   28.1170 H   0  0  0  0  0  0  0  0  0  0  0  0
    2.1970   -3.5190   26.6750 H   0  0  0  0  0  0  0  0  0  0  0  0
    3.1200   -2.1230   27.3100 H   0  0  0  0  0  0  0  0  0  0  0  0
    4.2920   -5.0460   26.0770 C   0  0  0  0  0  0  0  0  0  0  0  0
    3.3280   -5.3680   25.6710 H   0  0  0  0  0  0  0  0  0  0  0  0
    5.0980   -5.3270   25.3910 H   0  0  0  0  0  0  0  0  0  0  0  0
    4.4550   -5.5580   27.0350 H   0  0  0  0  0  0  0  0  0  0  0  0
    4.1860   -3.1190   25.3630 H   0  0  0  0  0  0  0  0  0  0  0  0
    5.5530   -3.3020   27.9520 H   0  0  0  0  0  0  0  0  0  0  0  0
    6.4010   -3.7370   26.4530 H   0  0  0  0  0  0  0  0  0  0  0  0
    6.2650   -1.1440   27.5070 H   0  0  0  0  0  0  0  0  0  0  0  0
    4.9830   -1.1360   26.2740 H   0  0  0  0  0  0  0  0  0  0  0  0
    8.2240   -1.5780   25.9050 C   0  0  0  0  0  0  0  0  0  0  0  0
    8.5240   -2.0790   26.9790 O   0  0  0  0  0  0  0  0  0  0  0  0
    9.2600   -1.1630   24.9070 C   0  0  0  0  0  0  0  0  0  0  0  0
   10.5940   -1.1070   25.3080 C   0  0  0  0  0  0  0  0  0  0  0  0
   11.5910   -0.7890   24.4050 C   0  0  0  0  0  0  0  0  0  0  0  0
   11.2360   -0.5460   23.0800 C   0  0  0  0  0  0  0  0  0  0  0  0
   12.4850   -0.1510   21.9350 Cl  0  0  0  0  0  0  0  0  0  0  0  0
    9.9200   -0.6200   22.6600 C   0  0  0  0  0  0  0  0  0  0  0  0
    8.9070   -0.9120   23.5800 C   0  0  0  0  0  0  0  0  0  0  0  0
    9.6830   -0.4320   21.6180 H   0  0  0  0  0  0  0  0  0  0  0  0
   12.6340   -0.7330   24.6980 H   0  0  0  0  0  0  0  0  0  0  0  0
   10.8360   -1.3380   26.3380 H   0  0  0  0  0  0  0  0  0  0  0  0
    6.4850    0.3130   24.4010 H   0  0  0  0  0  0  0  0  0  0  0  0
    5.5120   -1.1490   24.0580 H   0  0  0  0  0  0  0  0  0  0  0  0
    5.2500   -2.4460   21.5410 H   0  0  0  0  0  0  0  0  0  0  0  0
    6.5240   -2.7920   20.3750 H   0  0  0  0  0  0  0  0  0  0  0  0
    8.2400   -2.7330   22.0010 H   0  0  0  0  0  0  0  0  0  0  0  0
    7.5090   -3.7790   24.1610 H   0  0  0  0  0  0  0  0  0  0  0  0
    5.8170   -3.4570   23.7640 H   0  0  0  0  0  0  0  0  0  0  0  0
    6.7650   -4.5750   22.7620 H   0  0  0  0  0  0  0  0  0  0  0  0
  1  2  1  0  0  0  0
  1 59  1  0  0  0  0
  1 60  1  0  0  0  0
  1 61  1  0  0  0  0
  2  3  1  0  0  0  0
  2 23  1  0  0  0  0
  2 58  1  6  0  0  0
  3  4  1  0  0  0  0
  3 56  1  0  0  0  0
  3 57  1  0  0  0  0
  4  5  1  0  0  0  0
  4 21  1  0  0  0  0
  5  6  2  0  0  0  0
  5 14  1  0  0  0  0
  6  7  1  0  0  0  0
  6 20  1  0  0  0  0
  7  8  2  0  0  0  0
  8  9  1  0  0  0  0
  8 19  1  0  0  0  0
  9 10  2  0  0  0  0
  9 14  1  0  0  0  0
 10 11  1  0  0  0  0
 10 18  1  0  0  0  0
 11 12  2  0  0  0  0
 11 17  1  0  0  0  0
 12 13  1  0  0  0  0
 12 16  1  0  0  0  0
 13 14  2  0  0  0  0
 13 15  1  0  0  0  0
 21 22  2  0  0  0  0
 23 21  1  6  0  0  0
 23 24  1  0  0  0  0
 23 50  1  0  0  0  0
 24 25  1  0  0  0  0
 24 54  1  0  0  0  0
 24 55  1  0  0  0  0
 25 26  1  0  0  0  0
 25 42  1  0  0  0  0
 26 27  1  0  0  0  0
 26 40  1  0  0  0  0
 26 41  1  0  0  0  0
 27 28  1  0  0  0  0
 27 38  1  0  0  0  0
 27 39  1  0  0  0  0
 28 29  1  0  0  0  0
 28 33  1  0  0  0  0
 28 37  1  0  0  0  0
 29 30  1  0  0  0  0
 29 31  1  0  0  0  0
 29 32  1  0  0  0  0
 33 34  1  0  0  0  0
 33 35  1  0  0  0  0
 33 36  1  0  0  0  0
 42 43  2  0  0  0  0
 42 44  1  0  0  0  0
 44 45  2  0  0  0  0
 44 50  1  0  0  0  0
 45 46  1  0  0  0  0
 45 53  1  0  0  0  0
 46 47  2  0  0  0  0
 46 52  1  0  0  0  0
 47 48  1  0  0  0  0
 47 49  1  0  0  0  0
 49 50  2  0  0  0  0
 49 51  1  0  0  0  0
M  CHG  1  28   1
M  END
>  <MODEL>
       5

$$$$
best_conformers_76.pdb
 OpenBabel02042510453D

 61 65  0  0  1  0  0  0  0  0999 V2000
    6.8050   -3.6210   23.3240 C   0  0  0  0  0  0  0  0  0  0  0  0
    7.2700   -2.4760   22.4170 C   0  0  1  0  0  0  0  0  0  0  0  0
    6.3010   -2.2040   21.2540 C   0  0  0  0  0  0  0  0  0  0  0  0
    6.4580   -0.7870   20.9780 N   0  0  0  0  0  0  0  0  0  0  0  0
    5.8490   -0.1500   19.8650 C   0  0  0  0  0  0  0  0  0  0  0  0
    6.2590   -0.4570   18.5930 C   0  0  0  0  0  0  0  0  0  0  0  0
    5.7690    0.1150   17.4640 N   0  0  0  0  0  0  0  0  0  0  0  0
    4.8070    0.9970   17.6100 C   0  0  0  0  0  0  0  0  0  0  0  0
    4.2400    1.3660   18.8600 C   0  0  0  0  0  0  0  0  0  0  0  0
    3.1790    2.3100   18.9550 C   0  0  0  0  0  0  0  0  0  0  0  0
    2.6290    2.6230   20.1670 C   0  0  0  0  0  0  0  0  0  0  0  0
    3.1120    1.9980   21.3410 C   0  0  0  0  0  0  0  0  0  0  0  0
    4.1390    1.0920   21.2730 C   0  0  0  0  0  0  0  0  0  0  0  0
    4.7560    0.7660   20.0330 C   0  0  0  0  0  0  0  0  0  0  0  0
    4.4990    0.6230   22.1830 H   0  0  0  0  0  0  0  0  0  0  0  0
    2.6740    2.2510   22.3030 H   0  0  0  0  0  0  0  0  0  0  0  0
    1.8240    3.3530   20.2380 H   0  0  0  0  0  0  0  0  0  0  0  0
    2.8200    2.7780   18.0390 H   0  0  0  0  0  0  0  0  0  0  0  0
    4.4210    1.4580   16.7010 H   0  0  0  0  0  0  0  0  0  0  0  0
    7.0430   -1.1950   18.4300 H   0  0  0  0  0  0  0  0  0  0  0  0
    7.1050   -0.0890   21.9750 C   0  0  0  0  0  0  0  0  0  0  0  0
    7.2830    1.1110   21.9670 O   0  0  0  0  0  0  0  0  0  0  0  0
    7.5000   -1.0750   23.0920 C   0  0  1  0  0  0  0  0  0  0  0  0
    6.5780   -0.7720   24.3000 C   0  0  0  0  0  0  0  0  0  0  0  0
    7.0100   -1.4040   25.5400 N   0  0  0  0  0  0  0  0  0  0  0  0
    6.0240   -1.7240   26.5740 C   0  0  0  0  0  0  0  0  0  0  0  0
    5.8710   -3.2320   26.8230 C   0  0  0  0  0  0  0  0  0  0  0  0
    5.1150   -3.5500   28.0990 N   0  3  0  0  0  0  0  0  0  0  0  0
    3.6700   -3.1730   28.0370 C   0  0  0  0  0  0  0  0  0  0  0  0
    3.5580   -2.0920   27.9470 H   0  0  0  0  0  0  0  0  0  0  0  0
    3.2030   -3.6590   27.1730 H   0  0  0  0  0  0  0  0  0  0  0  0
    3.1620   -3.5160   28.9420 H   0  0  0  0  0  0  0  0  0  0  0  0
    5.2370   -4.9920   28.4380 C   0  0  0  0  0  0  0  0  0  0  0  0
    6.2920   -5.2590   28.5310 H   0  0  0  0  0  0  0  0  0  0  0  0
    4.7920   -5.5920   27.6360 H   0  0  0  0  0  0  0  0  0  0  0  0
    4.7140   -5.2070   29.3710 H   0  0  0  0  0  0  0  0  0  0  0  0
    5.5770   -3.0040   28.8520 H   0  0  0  0  0  0  0  0  0  0  0  0
    6.8550   -3.6970   26.9260 H   0  0  0  0  0  0  0  0  0  0  0  0
    5.3270   -3.7130   25.9990 H   0  0  0  0  0  0  0  0  0  0  0  0
    6.3170   -1.2480   27.5180 H   0  0  0  0  0  0  0  0  0  0  0  0
    5.0770   -1.2850   26.2420 H   0  0  0  0  0  0  0  0  0  0  0  0
    8.3280   -1.5000   25.8770 C   0  0  0  0  0  0  0  0  0  0  0  0
    8.6840   -1.9370   26.9560 O   0  0  0  0  0  0  0  0  0  0  0  0
    9.3260   -1.0880   24.8440 C   0  0  0  0  0  0  0  0  0  0  0  0
   10.6670   -1.0100   25.2180 C   0  0  0  0  0  0  0  0  0  0  0  0
   11.6400   -0.7250   24.2810 C   0  0  0  0  0  0  0  0  0  0  0  0
   11.2570   -0.5400   22.9540 C   0  0  0  0  0  0  0  0  0  0  0  0
   12.4890   -0.1860   21.7820 Cl  0  0  0  0  0  0  0  0  0  0  0  0
    9.9330   -0.6340   22.5620 C   0  0  0  0  0  0  0  0  0  0  0  0
    8.9430   -0.8880   23.5170 C   0  0  0  0  0  0  0  0  0  0  0  0
    9.6680   -0.4910   21.5200 H   0  0  0  0  0  0  0  0  0  0  0  0
   12.6900   -0.6550   24.5480 H   0  0  0  0  0  0  0  0  0  0  0  0
   10.9200   -1.2040   26.2540 H   0  0  0  0  0  0  0  0  0  0  0  0
    5.5650   -1.1390   24.0820 H   0  0  0  0  0  0  0  0  0  0  0  0
    6.5520    0.3260   24.3970 H   0  0  0  0  0  0  0  0  0  0  0  0
    5.2630   -2.4480   21.5280 H   0  0  0  0  0  0  0  0  0  0  0  0
    6.5370   -2.7790   20.3590 H   0  0  0  0  0  0  0  0  0  0  0  0
    8.2490   -2.7450   21.9960 H   0  0  0  0  0  0  0  0  0  0  0  0
    6.7720   -4.5690   22.7740 H   0  0  0  0  0  0  0  0  0  0  0  0
    7.4750   -3.7510   24.1810 H   0  0  0  0  0  0  0  0  0  0  0  0
    5.8000   -3.4300   23.7220 H   0  0  0  0  0  0  0  0  0  0  0  0
  1  2  1  0  0  0  0
  1 59  1  0  0  0  0
  1 60  1  0  0  0  0
  1 61  1  0  0  0  0
  2  3  1  0  0  0  0
  2 23  1  0  0  0  0
  2 58  1  6  0  0  0
  3  4  1  0  0  0  0
  3 56  1  0  0  0  0
  3 57  1  0  0  0  0
  4  5  1  0  0  0  0
  4 21  1  0  0  0  0
  5  6  2  0  0  0  0
  5 14  1  0  0  0  0
  6  7  1  0  0  0  0
  6 20  1  0  0  0  0
  7  8  2  0  0  0  0
  8  9  1  0  0  0  0
  8 19  1  0  0  0  0
  9 10  2  0  0  0  0
  9 14  1  0  0  0  0
 10 11  1  0  0  0  0
 10 18  1  0  0  0  0
 11 12  2  0  0  0  0
 11 17  1  0  0  0  0
 12 13  1  0  0  0  0
 12 16  1  0  0  0  0
 13 14  2  0  0  0  0
 13 15  1  0  0  0  0
 21 22  2  0  0  0  0
 23 21  1  6  0  0  0
 23 24  1  0  0  0  0
 23 50  1  0  0  0  0
 24 25  1  0  0  0  0
 24 54  1  0  0  0  0
 24 55  1  0  0  0  0
 25 26  1  0  0  0  0
 25 42  1  0  0  0  0
 26 27  1  0  0  0  0
 26 40  1  0  0  0  0
 26 41  1  0  0  0  0
 27 28  1  0  0  0  0
 27 38  1  0  0  0  0
 27 39  1  0  0  0  0
 28 29  1  0  0  0  0
 28 33  1  0  0  0  0
 28 37  1  0  0  0  0
 29 30  1  0  0  0  0
 29 31  1  0  0  0  0
 29 32  1  0  0  0  0
 33 34  1  0  0  0  0
 33 35  1  0  0  0  0
 33 36  1  0  0  0  0
 42 43  2  0  0  0  0
 42 44  1  0  0  0  0
 44 45  2  0  0  0  0
 44 50  1  0  0  0  0
 45 46  1  0  0  0  0
 45 53  1  0  0  0  0
 46 47  2  0  0  0  0
 46 52  1  0  0  0  0
 47 48  1  0  0  0  0
 47 49  1  0  0  0  0
 49 50  2  0  0  0  0
 49 51  1  0  0  0  0
M  CHG  1  28   1
M  END
>  <MODEL>
       6

$$$$
