best_conformers_10.pdb
 OpenBabel02042510453D

 72 77  0  0  1  0  0  0  0  0999 V2000
    2.1310   -2.9030   29.4790 C   0  0  0  0  0  0  0  0  0  0  0  0
    3.5920   -2.5680   29.7220 C   0  0  1  0  0  0  0  0  0  0  0  0
    4.2660   -2.0320   28.4630 C   0  0  0  0  0  0  0  0  0  0  0  0
    5.6980   -1.6330   28.7430 N   0  3  1  0  0  0  0  0  0  0  0  0
    6.3870   -1.0360   27.5500 C   0  0  0  0  0  0  0  0  0  0  0  0
    6.6940   -2.0720   26.4610 C   0  0  0  0  0  0  0  0  0  0  0  0
    7.5610   -1.5440   25.4180 N   0  0  0  0  0  0  0  0  0  0  0  0
    6.9940   -0.8360   24.2830 C   0  0  0  0  0  0  0  0  0  0  0  0
    7.7800   -1.0560   22.9620 C   0  0  2  0  0  0  0  0  0  0  0  0
    7.2120   -0.0610   21.9250 C   0  0  0  0  0  0  0  0  0  0  0  0
    7.3250    1.1470   21.9210 O   0  0  0  0  0  0  0  0  0  0  0  0
    6.4780   -0.7610   20.9910 N   0  0  0  0  0  0  0  0  0  0  0  0
    5.8590   -0.1430   19.8760 C   0  0  0  0  0  0  0  0  0  0  0  0
    6.2730   -0.4560   18.6030 C   0  0  0  0  0  0  0  0  0  0  0  0
    5.7830    0.1070   17.4710 N   0  0  0  0  0  0  0  0  0  0  0  0
    4.8170    0.9860   17.6160 C   0  0  0  0  0  0  0  0  0  0  0  0
    4.2560    1.3630   18.8690 C   0  0  0  0  0  0  0  0  0  0  0  0
    3.1970    2.3060   18.9560 C   0  0  0  0  0  0  0  0  0  0  0  0
    2.6470    2.6300   20.1670 C   0  0  0  0  0  0  0  0  0  0  0  0
    3.1280    2.0160   21.3450 C   0  0  0  0  0  0  0  0  0  0  0  0
    4.1560    1.1070   21.2880 C   0  0  0  0  0  0  0  0  0  0  0  0
    4.7690    0.7730   20.0460 C   0  0  0  0  0  0  0  0  0  0  0  0
    4.5140    0.6500   22.2040 H   0  0  0  0  0  0  0  0  0  0  0  0
    2.6890    2.2760   22.3030 H   0  0  0  0  0  0  0  0  0  0  0  0
    1.8480    3.3640   20.2320 H   0  0  0  0  0  0  0  0  0  0  0  0
    2.8410    2.7680   18.0390 H   0  0  0  0  0  0  0  0  0  0  0  0
    4.4220    1.4410   16.7090 H   0  0  0  0  0  0  0  0  0  0  0  0
    7.0630   -1.1910   18.4480 H   0  0  0  0  0  0  0  0  0  0  0  0
    6.3900   -2.1800   21.2480 C   0  0  0  0  0  0  0  0  0  0  0  0
    7.5130   -2.4440   22.2690 C   0  0  2  0  0  0  0  0  0  0  0  0
    7.1980   -3.6230   23.1940 C   0  0  0  0  0  0  0  0  0  0  0  0
    7.9840   -3.7650   23.9410 H   0  0  0  0  0  0  0  0  0  0  0  0
    6.2520   -3.4760   23.7300 H   0  0  0  0  0  0  0  0  0  0  0  0
    7.1000   -4.5510   22.6240 H   0  0  0  0  0  0  0  0  0  0  0  0
    8.4360   -2.6630   21.7120 H   0  0  0  0  0  0  0  0  0  0  0  0
    6.5020   -2.7290   20.3090 H   0  0  0  0  0  0  0  0  0  0  0  0
    5.4000   -2.4370   21.6550 H   0  0  0  0  0  0  0  0  0  0  0  0
    9.2560   -0.8200   23.2610 C   0  0  0  0  0  0  0  0  0  0  0  0
   10.1630   -0.4540   22.2500 C   0  0  0  0  0  0  0  0  0  0  0  0
   11.5070   -0.3070   22.5810 C   0  0  0  0  0  0  0  0  0  0  0  0
   12.7330    0.1980   21.4540 Cl  0  0  0  0  0  0  0  0  0  0  0  0
   11.9890   -0.5390   23.8660 C   0  0  0  0  0  0  0  0  0  0  0  0
   11.1060   -0.9190   24.8460 C   0  0  0  0  0  0  0  0  0  0  0  0
    9.7570   -1.0550   24.5490 C   0  0  0  0  0  0  0  0  0  0  0  0
    8.8980   -1.5080   25.6770 C   0  0  0  0  0  0  0  0  0  0  0  0
    9.3670   -1.8430   26.7580 O   0  0  0  0  0  0  0  0  0  0  0  0
   11.4000   -1.1340   25.8640 H   0  0  0  0  0  0  0  0  0  0  0  0
   13.0490   -0.4350   24.0770 H   0  0  0  0  0  0  0  0  0  0  0  0
    9.8130   -0.2880   21.2300 H   0  0  0  0  0  0  0  0  0  0  0  0
    6.9950    0.2500   24.4660 H   0  0  0  0  0  0  0  0  0  0  0  0
    5.9630   -1.1880   24.1590 H   0  0  0  0  0  0  0  0  0  0  0  0
    5.7710   -2.4240   25.9770 H   0  0  0  0  0  0  0  0  0  0  0  0
    7.2170   -2.9220   26.9110 H   0  0  0  0  0  0  0  0  0  0  0  0
    5.7550   -0.2360   27.1380 H   0  0  0  0  0  0  0  0  0  0  0  0
    7.3190   -0.5770   27.8940 H   0  0  0  0  0  0  0  0  0  0  0  0
    5.7100   -0.6800   29.9110 C   0  0  0  0  0  0  0  0  0  0  0  0
    4.9430   -1.2060   31.1240 C   0  0  2  0  0  0  0  0  0  0  0  0
    5.7070   -2.2910   31.8760 C   0  0  0  0  0  0  0  0  0  0  0  0
    5.1080   -2.6740   32.7080 H   0  0  0  0  0  0  0  0  0  0  0  0
    6.6410   -1.8820   32.2780 H   0  0  0  0  0  0  0  0  0  0  0  0
    5.9770   -3.1280   31.2210 H   0  0  0  0  0  0  0  0  0  0  0  0
    3.6280   -1.6000   30.7610 O   0  0  0  0  0  0  0  0  0  0  0  0
    4.7870   -0.3570   31.8000 H   0  0  0  0  0  0  0  0  0  0  0  0
    6.7450   -0.4860   30.1980 H   0  0  0  0  0  0  0  0  0  0  0  0
    5.2530    0.2570   29.5760 H   0  0  0  0  0  0  0  0  0  0  0  0
    6.2510   -2.4790   29.0030 H   0  0  0  0  0  0  0  0  0  0  0  0
    3.7170   -1.1500   28.1090 H   0  0  0  0  0  0  0  0  0  0  0  0
    4.2440   -2.7930   27.6800 H   0  0  0  0  0  0  0  0  0  0  0  0
    4.1380   -3.4660   30.0490 H   0  0  0  0  0  0  0  0  0  0  0  0
    1.6610   -3.2820   30.3910 H   0  0  0  0  0  0  0  0  0  0  0  0
    2.0310   -3.6600   28.6930 H   0  0  0  0  0  0  0  0  0  0  0  0
    1.5890   -2.0010   29.1720 H   0  0  0  0  0  0  0  0  0  0  0  0
  1  2  1  0  0  0  0
  1 70  1  0  0  0  0
  1 71  1  0  0  0  0
  1 72  1  0  0  0  0
  2  3  1  0  0  0  0
  2 62  1  0  0  0  0
  2 69  1  1  0  0  0
  3  4  1  0  0  0  0
  3 67  1  0  0  0  0
  3 68  1  0  0  0  0
  4  5  1  0  0  0  0
  4 56  1  0  0  0  0
  4 66  1  1  0  0  0
  5  6  1  0  0  0  0
  5 54  1  0  0  0  0
  5 55  1  0  0  0  0
  6  7  1  0  0  0  0
  6 52  1  0  0  0  0
  6 53  1  0  0  0  0
  7  8  1  0  0  0  0
  7 45  1  0  0  0  0
  8  9  1  0  0  0  0
  8 50  1  0  0  0  0
  8 51  1  0  0  0  0
  9 10  1  6  0  0  0
  9 30  1  0  0  0  0
  9 38  1  0  0  0  0
 10 11  2  0  0  0  0
 10 12  1  0  0  0  0
 12 13  1  0  0  0  0
 12 29  1  0  0  0  0
 13 14  2  0  0  0  0
 13 22  1  0  0  0  0
 14 15  1  0  0  0  0
 14 28  1  0  0  0  0
 15 16  2  0  0  0  0
 16 17  1  0  0  0  0
 16 27  1  0  0  0  0
 17 18  2  0  0  0  0
 17 22  1  0  0  0  0
 18 19  1  0  0  0  0
 18 26  1  0  0  0  0
 19 20  2  0  0  0  0
 19 25  1  0  0  0  0
 20 21  1  0  0  0  0
 20 24  1  0  0  0  0
 21 22  2  0  0  0  0
 21 23  1  0  0  0  0
 29 30  1  0  0  0  0
 29 36  1  0  0  0  0
 29 37  1  0  0  0  0
 30 31  1  0  0  0  0
 30 35  1  6  0  0  0
 31 32  1  0  0  0  0
 31 33  1  0  0  0  0
 31 34  1  0  0  0  0
 38 39  2  0  0  0  0
 38 44  1  0  0  0  0
 39 40  1  0  0  0  0
 39 49  1  0  0  0  0
 40 41  1  0  0  0  0
 40 42  2  0  0  0  0
 42 43  1  0  0  0  0
 42 48  1  0  0  0  0
 43 44  2  0  0  0  0
 43 47  1  0  0  0  0
 44 45  1  0  0  0  0
 45 46  2  0  0  0  0
 56 57  1  0  0  0  0
 56 64  1  0  0  0  0
 56 65  1  0  0  0  0
 57 58  1  0  0  0  0
 57 62  1  0  0  0  0
 57 63  1  1  0  0  0
 58 59  1  0  0  0  0
 58 60  1  0  0  0  0
 58 61  1  0  0  0  0
M  CHG  1   4   1
M  END
>  <MODEL>
       1

$$$$
best_conformers_10.pdb
 OpenBabel02042510453D

 72 77  0  0  1  0  0  0  0  0999 V2000
    6.9150   -0.3410   31.6290 C   0  0  0  0  0  0  0  0  0  0  0  0
    6.4370    0.3770   30.3780 C   0  0  1  0  0  0  0  0  0  0  0  0
    6.2210   -0.6070   29.2200 C   0  0  0  0  0  0  0  0  0  0  0  0
    5.8340    0.1090   27.9470 N   0  3  1  0  0  0  0  0  0  0  0  0
    5.0400   -0.7720   27.0320 C   0  0  0  0  0  0  0  0  0  0  0  0
    5.8920   -1.8860   26.4260 C   0  0  0  0  0  0  0  0  0  0  0  0
    6.9420   -1.4000   25.5430 N   0  0  0  0  0  0  0  0  0  0  0  0
    6.5480   -0.7600   24.3010 C   0  0  0  0  0  0  0  0  0  0  0  0
    7.4820   -1.0690   23.1060 C   0  0  2  0  0  0  0  0  0  0  0  0
    7.1010   -0.0860   21.9820 C   0  0  0  0  0  0  0  0  0  0  0  0
    7.2830    1.1160   21.9660 O   0  0  0  0  0  0  0  0  0  0  0  0
    6.4590   -0.7850   20.9830 N   0  0  0  0  0  0  0  0  0  0  0  0
    5.8530   -0.1490   19.8690 C   0  0  0  0  0  0  0  0  0  0  0  0
    6.2630   -0.4580   18.5970 C   0  0  0  0  0  0  0  0  0  0  0  0
    5.7730    0.1120   17.4680 N   0  0  0  0  0  0  0  0  0  0  0  0
    4.8100    0.9930   17.6140 C   0  0  0  0  0  0  0  0  0  0  0  0
    4.2430    1.3640   18.8630 C   0  0  0  0  0  0  0  0  0  0  0  0
    3.1810    2.3080   18.9560 C   0  0  0  0  0  0  0  0  0  0  0  0
    2.6290    2.6230   20.1670 C   0  0  0  0  0  0  0  0  0  0  0  0
    3.1110    1.9990   21.3420 C   0  0  0  0  0  0  0  0  0  0  0  0
    4.1390    1.0930   21.2760 C   0  0  0  0  0  0  0  0  0  0  0  0
    4.7580    0.7660   20.0370 C   0  0  0  0  0  0  0  0  0  0  0  0
    4.4980    0.6260   22.1880 H   0  0  0  0  0  0  0  0  0  0  0  0
    2.6730    2.2530   22.3030 H   0  0  0  0  0  0  0  0  0  0  0  0
    1.8260    3.3540   20.2360 H   0  0  0  0  0  0  0  0  0  0  0  0
    2.8250    2.7750   18.0390 H   0  0  0  0  0  0  0  0  0  0  0  0
    4.4240    1.4540   16.7040 H   0  0  0  0  0  0  0  0  0  0  0  0
    7.0460   -1.1980   18.4340 H   0  0  0  0  0  0  0  0  0  0  0  0
    6.2920   -2.1990   21.2650 C   0  0  0  0  0  0  0  0  0  0  0  0
    7.2590   -2.4690   22.4300 C   0  0  2  0  0  0  0  0  0  0  0  0
    6.7960   -3.6150   23.3350 C   0  0  0  0  0  0  0  0  0  0  0  0
    7.4730   -3.7550   24.1840 H   0  0  0  0  0  0  0  0  0  0  0  0
    5.7950   -3.4210   23.7410 H   0  0  0  0  0  0  0  0  0  0  0  0
    6.7460   -4.5590   22.7800 H   0  0  0  0  0  0  0  0  0  0  0  0
    8.2410   -2.7310   22.0100 H   0  0  0  0  0  0  0  0  0  0  0  0
    6.5230   -2.7810   20.3720 H   0  0  0  0  0  0  0  0  0  0  0  0
    5.2510   -2.4330   21.5400 H   0  0  0  0  0  0  0  0  0  0  0  0
    8.9130   -0.8850   23.5620 C   0  0  0  0  0  0  0  0  0  0  0  0
    9.9180   -0.6060   22.6300 C   0  0  0  0  0  0  0  0  0  0  0  0
   11.2330   -0.5030   23.0480 C   0  0  0  0  0  0  0  0  0  0  0  0
   12.4790   -0.1260   21.8960 Cl  0  0  0  0  0  0  0  0  0  0  0  0
   11.5900   -0.6980   24.3810 C   0  0  0  0  0  0  0  0  0  0  0  0
   10.6020   -1.0110   25.2950 C   0  0  0  0  0  0  0  0  0  0  0  0
    9.2710   -1.1090   24.8950 C   0  0  0  0  0  0  0  0  0  0  0  0
    8.2510   -1.5430   25.8990 C   0  0  0  0  0  0  0  0  0  0  0  0
    8.5850   -2.0140   26.9760 O   0  0  0  0  0  0  0  0  0  0  0  0
   10.8320   -1.2130   26.3350 H   0  0  0  0  0  0  0  0  0  0  0  0
   12.6330   -0.6200   24.6700 H   0  0  0  0  0  0  0  0  0  0  0  0
    9.6760   -0.4520   21.5850 H   0  0  0  0  0  0  0  0  0  0  0  0
    6.5540    0.3340   24.4220 H   0  0  0  0  0  0  0  0  0  0  0  0
    5.5280   -1.0980   24.0690 H   0  0  0  0  0  0  0  0  0  0  0  0
    5.2230   -2.5530   25.8670 H   0  0  0  0  0  0  0  0  0  0  0  0
    6.3870   -2.4650   27.2040 H   0  0  0  0  0  0  0  0  0  0  0  0
    4.2040   -1.2060   27.5970 H   0  0  0  0  0  0  0  0  0  0  0  0
    4.6220   -0.1420   26.2380 H   0  0  0  0  0  0  0  0  0  0  0  0
    5.1310    1.3990   28.2800 C   0  0  0  0  0  0  0  0  0  0  0  0
    4.3660    1.3160   29.6040 C   0  0  2  0  0  0  0  0  0  0  0  0
    3.6010    2.5970   29.8830 C   0  0  0  0  0  0  0  0  0  0  0  0
    2.8780    2.7850   29.0810 H   0  0  0  0  0  0  0  0  0  0  0  0
    4.2910    3.4480   29.9350 H   0  0  0  0  0  0  0  0  0  0  0  0
    3.0610    2.5280   30.8310 H   0  0  0  0  0  0  0  0  0  0  0  0
    5.2420    1.0770   30.7000 O   0  0  0  0  0  0  0  0  0  0  0  0
    3.6540    0.4750   29.5360 H   0  0  0  0  0  0  0  0  0  0  0  0
    4.4340    1.6190   27.4670 H   0  0  0  0  0  0  0  0  0  0  0  0
    5.8690    2.2060   28.3390 H   0  0  0  0  0  0  0  0  0  0  0  0
    6.7050    0.3190   27.4280 H   0  0  0  0  0  0  0  0  0  0  0  0
    7.1240   -1.1840   29.0020 H   0  0  0  0  0  0  0  0  0  0  0  0
    5.4290   -1.3170   29.4930 H   0  0  0  0  0  0  0  0  0  0  0  0
    7.1960    1.1230   30.0770 H   0  0  0  0  0  0  0  0  0  0  0  0
    7.0740    0.3640   32.4500 H   0  0  0  0  0  0  0  0  0  0  0  0
    7.8610   -0.8610   31.4370 H   0  0  0  0  0  0  0  0  0  0  0  0
    6.1760   -1.0850   31.9470 H   0  0  0  0  0  0  0  0  0  0  0  0
  1  2  1  0  0  0  0
  1 70  1  0  0  0  0
  1 71  1  0  0  0  0
  1 72  1  0  0  0  0
  2  3  1  0  0  0  0
  2 62  1  0  0  0  0
  2 69  1  6  0  0  0
  3  4  1  0  0  0  0
  3 67  1  0  0  0  0
  3 68  1  0  0  0  0
  4  5  1  0  0  0  0
  4 56  1  0  0  0  0
  4 66  1  6  0  0  0
  5  6  1  0  0  0  0
  5 54  1  0  0  0  0
  5 55  1  0  0  0  0
  6  7  1  0  0  0  0
  6 52  1  0  0  0  0
  6 53  1  0  0  0  0
  7  8  1  0  0  0  0
  7 45  1  0  0  0  0
  8  9  1  0  0  0  0
  8 50  1  0  0  0  0
  8 51  1  0  0  0  0
  9 10  1  6  0  0  0
  9 30  1  0  0  0  0
  9 38  1  0  0  0  0
 10 11  2  0  0  0  0
 10 12  1  0  0  0  0
 12 13  1  0  0  0  0
 12 29  1  0  0  0  0
 13 14  2  0  0  0  0
 13 22  1  0  0  0  0
 14 15  1  0  0  0  0
 14 28  1  0  0  0  0
 15 16  2  0  0  0  0
 16 17  1  0  0  0  0
 16 27  1  0  0  0  0
 17 18  2  0  0  0  0
 17 22  1  0  0  0  0
 18 19  1  0  0  0  0
 18 26  1  0  0  0  0
 19 20  2  0  0  0  0
 19 25  1  0  0  0  0
 20 21  1  0  0  0  0
 20 24  1  0  0  0  0
 21 22  2  0  0  0  0
 21 23  1  0  0  0  0
 29 30  1  0  0  0  0
 29 36  1  0  0  0  0
 29 37  1  0  0  0  0
 30 31  1  0  0  0  0
 30 35  1  6  0  0  0
 31 32  1  0  0  0  0
 31 33  1  0  0  0  0
 31 34  1  0  0  0  0
 38 39  2  0  0  0  0
 38 44  1  0  0  0  0
 39 40  1  0  0  0  0
 39 49  1  0  0  0  0
 40 41  1  0  0  0  0
 40 42  2  0  0  0  0
 42 43  1  0  0  0  0
 42 48  1  0  0  0  0
 43 44  2  0  0  0  0
 43 47  1  0  0  0  0
 44 45  1  0  0  0  0
 45 46  2  0  0  0  0
 56 57  1  0  0  0  0
 56 64  1  0  0  0  0
 56 65  1  0  0  0  0
 57 58  1  0  0  0  0
 57 62  1  0  0  0  0
 57 63  1  6  0  0  0
 58 59  1  0  0  0  0
 58 60  1  0  0  0  0
 58 61  1  0  0  0  0
M  CHG  1   4   1
M  END
>  <MODEL>
       2

$$$$
best_conformers_10.pdb
 OpenBabel02042510453D

 72 77  0  0  1  0  0  0  0  0999 V2000
    5.3760   -2.9810   31.7770 C   0  0  0  0  0  0  0  0  0  0  0  0
    4.8890   -3.3020   30.3760 C   0  0  1  0  0  0  0  0  0  0  0  0
    5.9770   -3.1190   29.3290 C   0  0  0  0  0  0  0  0  0  0  0  0
    5.4390   -3.4920   27.9660 N   0  3  1  0  0  0  0  0  0  0  0  0
    6.3970   -3.1980   26.8600 C   0  0  0  0  0  0  0  0  0  0  0  0
    6.4380   -1.6910   26.5880 C   0  0  0  0  0  0  0  0  0  0  0  0
    7.3090   -1.3570   25.4770 N   0  0  0  0  0  0  0  0  0  0  0  0
    6.7910   -0.7540   24.2580 C   0  0  0  0  0  0  0  0  0  0  0  0
    7.6670   -1.0430   23.0040 C   0  0  2  0  0  0  0  0  0  0  0  0
    7.1830   -0.0610   21.9290 C   0  0  0  0  0  0  0  0  0  0  0  0
    7.3410    1.1460   21.9120 O   0  0  0  0  0  0  0  0  0  0  0  0
    6.4640   -0.7630   20.9890 N   0  0  0  0  0  0  0  0  0  0  0  0
    5.8530   -0.1390   19.8850 C   0  0  0  0  0  0  0  0  0  0  0  0
    6.2920   -0.4540   18.6250 C   0  0  0  0  0  0  0  0  0  0  0  0
    5.8140    0.0950   17.4840 N   0  0  0  0  0  0  0  0  0  0  0  0
    4.8410    0.9680   17.6180 C   0  0  0  0  0  0  0  0  0  0  0  0
    4.2690    1.3510   18.8660 C   0  0  0  0  0  0  0  0  0  0  0  0
    3.2140    2.2970   18.9350 C   0  0  0  0  0  0  0  0  0  0  0  0
    2.6490    2.6180   20.1390 C   0  0  0  0  0  0  0  0  0  0  0  0
    3.1090    2.0090   21.3270 C   0  0  0  0  0  0  0  0  0  0  0  0
    4.1400    1.1030   21.2890 C   0  0  0  0  0  0  0  0  0  0  0  0
    4.7630    0.7680   20.0510 C   0  0  0  0  0  0  0  0  0  0  0  0
    4.4930    0.6520   22.2110 H   0  0  0  0  0  0  0  0  0  0  0  0
    2.6450    2.2630   22.2750 H   0  0  0  0  0  0  0  0  0  0  0  0
    1.8400    3.3400   20.1860 H   0  0  0  0  0  0  0  0  0  0  0  0
    2.8710    2.7510   18.0100 H   0  0  0  0  0  0  0  0  0  0  0  0
    4.4490    1.4170   16.7060 H   0  0  0  0  0  0  0  0  0  0  0  0
    7.0970   -1.1790   18.5140 H   0  0  0  0  0  0  0  0  0  0  0  0
    6.2810   -2.1630   21.2960 C   0  0  0  0  0  0  0  0  0  0  0  0
    7.3850   -2.4370   22.3240 C   0  0  2  0  0  0  0  0  0  0  0  0
    7.0360   -3.5970   23.2460 C   0  0  0  0  0  0  0  0  0  0  0  0
    7.7730   -3.7020   24.0470 H   0  0  0  0  0  0  0  0  0  0  0  0
    6.0570   -3.4330   23.7100 H   0  0  0  0  0  0  0  0  0  0  0  0
    6.9900   -4.5350   22.6820 H   0  0  0  0  0  0  0  0  0  0  0  0
    8.3030   -2.6820   21.7720 H   0  0  0  0  0  0  0  0  0  0  0  0
    5.2760   -2.3630   21.7060 H   0  0  0  0  0  0  0  0  0  0  0  0
    6.3710   -2.7680   20.3900 H   0  0  0  0  0  0  0  0  0  0  0  0
    9.1310   -0.8280   23.3620 C   0  0  0  0  0  0  0  0  0  0  0  0
   10.1070   -0.5200   22.4030 C   0  0  0  0  0  0  0  0  0  0  0  0
   11.4370   -0.3960   22.7780 C   0  0  0  0  0  0  0  0  0  0  0  0
   12.6570   -0.0330   21.5970 Cl  0  0  0  0  0  0  0  0  0  0  0  0
   11.8540   -0.5670   24.0960 C   0  0  0  0  0  0  0  0  0  0  0  0
   10.9040   -0.8800   25.0380 C   0  0  0  0  0  0  0  0  0  0  0  0
    9.5680   -1.0120   24.6740 C   0  0  0  0  0  0  0  0  0  0  0  0
    8.6410   -1.4220   25.7500 C   0  0  0  0  0  0  0  0  0  0  0  0
    9.0750   -1.8040   26.8270 O   0  0  0  0  0  0  0  0  0  0  0  0
   11.1610   -1.0510   26.0780 H   0  0  0  0  0  0  0  0  0  0  0  0
   12.9020   -0.4810   24.3650 H   0  0  0  0  0  0  0  0  0  0  0  0
    9.8440   -0.3660   21.3640 H   0  0  0  0  0  0  0  0  0  0  0  0
    5.7770   -1.1380   24.0890 H   0  0  0  0  0  0  0  0  0  0  0  0
    6.7240    0.3400   24.3630 H   0  0  0  0  0  0  0  0  0  0  0  0
    6.8050   -1.1700   27.4790 H   0  0  0  0  0  0  0  0  0  0  0  0
    5.4340   -1.3170   26.3760 H   0  0  0  0  0  0  0  0  0  0  0  0
    7.3980   -3.5580   27.1230 H   0  0  0  0  0  0  0  0  0  0  0  0
    6.0750   -3.7360   25.9590 H   0  0  0  0  0  0  0  0  0  0  0  0
    5.0120   -4.9250   28.0250 C   0  0  0  0  0  0  0  0  0  0  0  0
    4.0460   -5.2330   29.1750 C   0  0  2  0  0  0  0  0  0  0  0  0
    2.5780   -4.9260   28.9120 C   0  0  0  0  0  0  0  0  0  0  0  0
    1.9850   -5.2430   29.7750 H   0  0  0  0  0  0  0  0  0  0  0  0
    2.3900   -3.8590   28.7720 H   0  0  0  0  0  0  0  0  0  0  0  0
    2.2320   -5.4700   28.0280 H   0  0  0  0  0  0  0  0  0  0  0  0
    4.4630   -4.6570   30.3990 O   0  0  0  0  0  0  0  0  0  0  0  0
    4.1260   -6.3140   29.3540 H   0  0  0  0  0  0  0  0  0  0  0  0
    5.9230   -5.5130   28.1730 H   0  0  0  0  0  0  0  0  0  0  0  0
    4.5670   -5.2160   27.0700 H   0  0  0  0  0  0  0  0  0  0  0  0
    4.5950   -2.9180   27.7680 H   0  0  0  0  0  0  0  0  0  0  0  0
    6.8300   -3.7700   29.5560 H   0  0  0  0  0  0  0  0  0  0  0  0
    6.3450   -2.0940   29.3270 H   0  0  0  0  0  0  0  0  0  0  0  0
    4.0290   -2.6600   30.1100 H   0  0  0  0  0  0  0  0  0  0  0  0
    5.5690   -1.9130   31.9110 H   0  0  0  0  0  0  0  0  0  0  0  0
    6.3090   -3.5150   31.9920 H   0  0  0  0  0  0  0  0  0  0  0  0
    4.6250   -3.3210   32.4960 H   0  0  0  0  0  0  0  0  0  0  0  0
  1  2  1  0  0  0  0
  1 70  1  0  0  0  0
  1 71  1  0  0  0  0
  1 72  1  0  0  0  0
  2  3  1  0  0  0  0
  2 62  1  0  0  0  0
  2 69  1  6  0  0  0
  3  4  1  0  0  0  0
  3 67  1  0  0  0  0
  3 68  1  0  0  0  0
  4  5  1  0  0  0  0
  4 56  1  0  0  0  0
  4 66  1  6  0  0  0
  5  6  1  0  0  0  0
  5 54  1  0  0  0  0
  5 55  1  0  0  0  0
  6  7  1  0  0  0  0
  6 52  1  0  0  0  0
  6 53  1  0  0  0  0
  7  8  1  0  0  0  0
  7 45  1  0  0  0  0
  8  9  1  0  0  0  0
  8 50  1  0  0  0  0
  8 51  1  0  0  0  0
  9 10  1  6  0  0  0
  9 30  1  0  0  0  0
  9 38  1  0  0  0  0
 10 11  2  0  0  0  0
 10 12  1  0  0  0  0
 12 13  1  0  0  0  0
 12 29  1  0  0  0  0
 13 14  2  0  0  0  0
 13 22  1  0  0  0  0
 14 15  1  0  0  0  0
 14 28  1  0  0  0  0
 15 16  2  0  0  0  0
 16 17  1  0  0  0  0
 16 27  1  0  0  0  0
 17 18  2  0  0  0  0
 17 22  1  0  0  0  0
 18 19  1  0  0  0  0
 18 26  1  0  0  0  0
 19 20  2  0  0  0  0
 19 25  1  0  0  0  0
 20 21  1  0  0  0  0
 20 24  1  0  0  0  0
 21 22  2  0  0  0  0
 21 23  1  0  0  0  0
 29 30  1  0  0  0  0
 29 36  1  0  0  0  0
 29 37  1  0  0  0  0
 30 31  1  0  0  0  0
 30 35  1  6  0  0  0
 31 32  1  0  0  0  0
 31 33  1  0  0  0  0
 31 34  1  0  0  0  0
 38 39  2  0  0  0  0
 38 44  1  0  0  0  0
 39 40  1  0  0  0  0
 39 49  1  0  0  0  0
 40 41  1  0  0  0  0
 40 42  2  0  0  0  0
 42 43  1  0  0  0  0
 42 48  1  0  0  0  0
 43 44  2  0  0  0  0
 43 47  1  0  0  0  0
 44 45  1  0  0  0  0
 45 46  2  0  0  0  0
 56 57  1  0  0  0  0
 56 64  1  0  0  0  0
 56 65  1  0  0  0  0
 57 58  1  0  0  0  0
 57 62  1  0  0  0  0
 57 63  1  1  0  0  0
 58 59  1  0  0  0  0
 58 60  1  0  0  0  0
 58 61  1  0  0  0  0
M  CHG  1   4   1
M  END
>  <MODEL>
       3

$$$$
best_conformers_10.pdb
 OpenBabel02042510453D

 72 77  0  0  1  0  0  0  0  0999 V2000
    7.0570    0.4560   31.5900 C   0  0  0  0  0  0  0  0  0  0  0  0
    6.7330    0.9240   30.1790 C   0  0  1  0  0  0  0  0  0  0  0  0
    6.1570   -0.2020   29.3060 C   0  0  0  0  0  0  0  0  0  0  0  0
    5.8230    0.2900   27.9110 N   0  3  1  0  0  0  0  0  0  0  0  0
    5.0930   -0.7290   27.0930 C   0  0  0  0  0  0  0  0  0  0  0  0
    6.0040   -1.7810   26.4800 C   0  0  0  0  0  0  0  0  0  0  0  0
    7.0010   -1.2240   25.5760 N   0  0  0  0  0  0  0  0  0  0  0  0
    6.5650   -0.7050   24.2820 C   0  0  0  0  0  0  0  0  0  0  0  0
    7.5030   -1.0490   23.0830 C   0  0  2  0  0  0  0  0  0  0  0  0
    7.1040   -0.0810   21.9600 C   0  0  0  0  0  0  0  0  0  0  0  0
    7.2890    1.1180   21.9340 O   0  0  0  0  0  0  0  0  0  0  0  0
    6.4390   -0.7830   20.9810 N   0  0  0  0  0  0  0  0  0  0  0  0
    5.8410   -0.1490   19.8730 C   0  0  0  0  0  0  0  0  0  0  0  0
    6.2810   -0.4570   18.6110 C   0  0  0  0  0  0  0  0  0  0  0  0
    5.8050    0.1020   17.4740 N   0  0  0  0  0  0  0  0  0  0  0  0
    4.8340    0.9770   17.6090 C   0  0  0  0  0  0  0  0  0  0  0  0
    4.2620    1.3540   18.8580 C   0  0  0  0  0  0  0  0  0  0  0  0
    3.2060    2.3000   18.9360 C   0  0  0  0  0  0  0  0  0  0  0  0
    2.6450    2.6150   20.1400 C   0  0  0  0  0  0  0  0  0  0  0  0
    3.1090    2.0030   21.3260 C   0  0  0  0  0  0  0  0  0  0  0  0
    4.1390    1.0960   21.2820 C   0  0  0  0  0  0  0  0  0  0  0  0
    4.7560    0.7660   20.0390 C   0  0  0  0  0  0  0  0  0  0  0  0
    4.4950    0.6410   22.2010 H   0  0  0  0  0  0  0  0  0  0  0  0
    2.6500    2.2530   22.2770 H   0  0  0  0  0  0  0  0  0  0  0  0
    1.8350    3.3380   20.1960 H   0  0  0  0  0  0  0  0  0  0  0  0
    2.8600    2.7600   18.0150 H   0  0  0  0  0  0  0  0  0  0  0  0
    4.4460    1.4340   16.6990 H   0  0  0  0  0  0  0  0  0  0  0  0
    7.0850   -1.1830   18.4920 H   0  0  0  0  0  0  0  0  0  0  0  0
    6.2330   -2.1800   21.2920 C   0  0  0  0  0  0  0  0  0  0  0  0
    7.2700   -2.4420   22.3890 C   0  0  2  0  0  0  0  0  0  0  0  0
    6.8920   -3.6130   23.2840 C   0  0  0  0  0  0  0  0  0  0  0  0
    6.8360   -4.5380   22.6990 H   0  0  0  0  0  0  0  0  0  0  0  0
    7.6210   -3.7570   24.0860 H   0  0  0  0  0  0  0  0  0  0  0  0
    5.9090   -3.4510   23.7420 H   0  0  0  0  0  0  0  0  0  0  0  0
    8.2190   -2.6750   21.8850 H   0  0  0  0  0  0  0  0  0  0  0  0
    6.3810   -2.7960   20.4020 H   0  0  0  0  0  0  0  0  0  0  0  0
    5.2060   -2.3710   21.6410 H   0  0  0  0  0  0  0  0  0  0  0  0
    8.9430   -0.8500   23.5130 C   0  0  0  0  0  0  0  0  0  0  0  0
    9.9480   -0.5390   22.5840 C   0  0  0  0  0  0  0  0  0  0  0  0
   11.2660   -0.4170   22.9990 C   0  0  0  0  0  0  0  0  0  0  0  0
   12.5120   -0.0150   21.8470 Cl  0  0  0  0  0  0  0  0  0  0  0  0
   11.6290   -0.6140   24.3320 C   0  0  0  0  0  0  0  0  0  0  0  0
   10.6470   -0.9580   25.2410 C   0  0  0  0  0  0  0  0  0  0  0  0
    9.3180   -1.0680   24.8400 C   0  0  0  0  0  0  0  0  0  0  0  0
    8.3110   -1.5020   25.8530 C   0  0  0  0  0  0  0  0  0  0  0  0
    8.6600   -2.0610   26.8830 O   0  0  0  0  0  0  0  0  0  0  0  0
   10.8850   -1.1570   26.2830 H   0  0  0  0  0  0  0  0  0  0  0  0
   12.6670   -0.5160   24.6380 H   0  0  0  0  0  0  0  0  0  0  0  0
    9.7050   -0.3720   21.5410 H   0  0  0  0  0  0  0  0  0  0  0  0
    6.5040    0.3930   24.3200 H   0  0  0  0  0  0  0  0  0  0  0  0
    5.5540   -1.0770   24.0680 H   0  0  0  0  0  0  0  0  0  0  0  0
    5.3820   -2.5130   25.9490 H   0  0  0  0  0  0  0  0  0  0  0  0
    6.5520   -2.3050   27.2600 H   0  0  0  0  0  0  0  0  0  0  0  0
    4.5500   -0.2040   26.3000 H   0  0  0  0  0  0  0  0  0  0  0  0
    4.3500   -1.2170   27.7330 H   0  0  0  0  0  0  0  0  0  0  0  0
    4.9890    1.5380   28.0080 C   0  0  0  0  0  0  0  0  0  0  0  0
    5.6020    2.5680   28.9490 C   0  0  2  0  0  0  0  0  0  0  0  0
    6.8780    3.1720   28.3740 C   0  0  0  0  0  0  0  0  0  0  0  0
    7.5910    2.3980   28.0730 H   0  0  0  0  0  0  0  0  0  0  0  0
    7.3540    3.8000   29.1320 H   0  0  0  0  0  0  0  0  0  0  0  0
    6.6820    3.7600   27.4730 H   0  0  0  0  0  0  0  0  0  0  0  0
    5.8110    2.0020   30.2400 O   0  0  0  0  0  0  0  0  0  0  0  0
    4.8710    3.3600   29.1390 H   0  0  0  0  0  0  0  0  0  0  0  0
    4.8980    1.9670   27.0090 H   0  0  0  0  0  0  0  0  0  0  0  0
    3.9940    1.2660   28.3780 H   0  0  0  0  0  0  0  0  0  0  0  0
    6.6970    0.4890   27.3780 H   0  0  0  0  0  0  0  0  0  0  0  0
    6.8540   -1.0410   29.2050 H   0  0  0  0  0  0  0  0  0  0  0  0
    5.2380   -0.5710   29.7820 H   0  0  0  0  0  0  0  0  0  0  0  0
    7.6690    1.2970   29.7330 H   0  0  0  0  0  0  0  0  0  0  0  0
    6.1610    0.0990   32.1090 H   0  0  0  0  0  0  0  0  0  0  0  0
    7.7880   -0.3660   31.5690 H   0  0  0  0  0  0  0  0  0  0  0  0
    7.4870    1.2870   32.1570 H   0  0  0  0  0  0  0  0  0  0  0  0
  1  2  1  0  0  0  0
  1 70  1  0  0  0  0
  1 71  1  0  0  0  0
  1 72  1  0  0  0  0
  2  3  1  0  0  0  0
  2 62  1  0  0  0  0
  2 69  1  6  0  0  0
  3  4  1  0  0  0  0
  3 67  1  0  0  0  0
  3 68  1  0  0  0  0
  4  5  1  0  0  0  0
  4 56  1  0  0  0  0
  4 66  1  6  0  0  0
  5  6  1  0  0  0  0
  5 54  1  0  0  0  0
  5 55  1  0  0  0  0
  6  7  1  0  0  0  0
  6 52  1  0  0  0  0
  6 53  1  0  0  0  0
  7  8  1  0  0  0  0
  7 45  1  0  0  0  0
  8  9  1  0  0  0  0
  8 50  1  0  0  0  0
  8 51  1  0  0  0  0
  9 10  1  6  0  0  0
  9 30  1  0  0  0  0
  9 38  1  0  0  0  0
 10 11  2  0  0  0  0
 10 12  1  0  0  0  0
 12 13  1  0  0  0  0
 12 29  1  0  0  0  0
 13 14  2  0  0  0  0
 13 22  1  0  0  0  0
 14 15  1  0  0  0  0
 14 28  1  0  0  0  0
 15 16  2  0  0  0  0
 16 17  1  0  0  0  0
 16 27  1  0  0  0  0
 17 18  2  0  0  0  0
 17 22  1  0  0  0  0
 18 19  1  0  0  0  0
 18 26  1  0  0  0  0
 19 20  2  0  0  0  0
 19 25  1  0  0  0  0
 20 21  1  0  0  0  0
 20 24  1  0  0  0  0
 21 22  2  0  0  0  0
 21 23  1  0  0  0  0
 29 30  1  0  0  0  0
 29 36  1  0  0  0  0
 29 37  1  0  0  0  0
 30 31  1  0  0  0  0
 30 35  1  6  0  0  0
 31 32  1  0  0  0  0
 31 33  1  0  0  0  0
 31 34  1  0  0  0  0
 38 39  2  0  0  0  0
 38 44  1  0  0  0  0
 39 40  1  0  0  0  0
 39 49  1  0  0  0  0
 40 41  1  0  0  0  0
 40 42  2  0  0  0  0
 42 43  1  0  0  0  0
 42 48  1  0  0  0  0
 43 44  2  0  0  0  0
 43 47  1  0  0  0  0
 44 45  1  0  0  0  0
 45 46  2  0  0  0  0
 56 57  1  0  0  0  0
 56 64  1  0  0  0  0
 56 65  1  0  0  0  0
 57 58  1  0  0  0  0
 57 62  1  0  0  0  0
 57 63  1  1  0  0  0
 58 59  1  0  0  0  0
 58 60  1  0  0  0  0
 58 61  1  0  0  0  0
M  CHG  1   4   1
M  END
>  <MODEL>
       4

$$$$
best_conformers_10.pdb
 OpenBabel02042510453D

 72 77  0  0  1  0  0  0  0  0999 V2000
    2.3050   -4.9960   28.7940 C   0  0  0  0  0  0  0  0  0  0  0  0
    3.7420   -5.4250   29.0830 C   0  0  1  0  0  0  0  0  0  0  0  0
    4.7100   -5.0460   27.9580 C   0  0  0  0  0  0  0  0  0  0  0  0
    5.0710   -3.5800   27.9570 N   0  3  2  0  0  0  0  0  0  0  0  0
    6.1030   -3.2710   26.9090 C   0  0  0  0  0  0  0  0  0  0  0  0
    6.2270   -1.7720   26.6050 C   0  0  0  0  0  0  0  0  0  0  0  0
    7.1710   -1.4790   25.5290 N   0  0  0  0  0  0  0  0  0  0  0  0
    6.6900   -0.8400   24.3100 C   0  0  0  0  0  0  0  0  0  0  0  0
    7.5590   -1.1220   23.0580 C   0  0  2  0  0  0  0  0  0  0  0  0
    7.1210   -0.1160   21.9710 C   0  0  0  0  0  0  0  0  0  0  0  0
    7.2930    1.0860   21.9770 O   0  0  0  0  0  0  0  0  0  0  0  0
    6.4520   -0.7990   20.9780 N   0  0  0  0  0  0  0  0  0  0  0  0
    5.8470   -0.1540   19.8660 C   0  0  0  0  0  0  0  0  0  0  0  0
    6.2590   -0.4570   18.5930 C   0  0  0  0  0  0  0  0  0  0  0  0
    5.7720    0.1170   17.4640 N   0  0  0  0  0  0  0  0  0  0  0  0
    4.8070    0.9970   17.6100 C   0  0  0  0  0  0  0  0  0  0  0  0
    4.2400    1.3650   18.8610 C   0  0  0  0  0  0  0  0  0  0  0  0
    3.1790    2.3090   18.9550 C   0  0  0  0  0  0  0  0  0  0  0  0
    2.6300    2.6230   20.1680 C   0  0  0  0  0  0  0  0  0  0  0  0
    3.1140    2.0000   21.3410 C   0  0  0  0  0  0  0  0  0  0  0  0
    4.1410    1.0930   21.2740 C   0  0  0  0  0  0  0  0  0  0  0  0
    4.7550    0.7640   20.0340 C   0  0  0  0  0  0  0  0  0  0  0  0
    4.5020    0.6270   22.1830 H   0  0  0  0  0  0  0  0  0  0  0  0
    2.6760    2.2530   22.3030 H   0  0  0  0  0  0  0  0  0  0  0  0
    1.8250    3.3530   20.2380 H   0  0  0  0  0  0  0  0  0  0  0  0
    2.8200    2.7760   18.0390 H   0  0  0  0  0  0  0  0  0  0  0  0
    4.4200    1.4590   16.7010 H   0  0  0  0  0  0  0  0  0  0  0  0
    7.0450   -1.1940   18.4280 H   0  0  0  0  0  0  0  0  0  0  0  0
    6.3010   -2.2180   21.2360 C   0  0  0  0  0  0  0  0  0  0  0  0
    7.3030   -2.5100   22.3660 C   0  0  2  0  0  0  0  0  0  0  0  0
    6.8620   -3.6650   23.2700 C   0  0  0  0  0  0  0  0  0  0  0  0
    5.8680   -3.4820   23.6970 H   0  0  0  0  0  0  0  0  0  0  0  0
    7.5540   -3.8080   24.1070 H   0  0  0  0  0  0  0  0  0  0  0  0
    6.8130   -4.6050   22.7080 H   0  0  0  0  0  0  0  0  0  0  0  0
    8.2680   -2.7740   21.9110 H   0  0  0  0  0  0  0  0  0  0  0  0
    6.5050   -2.7770   20.3220 H   0  0  0  0  0  0  0  0  0  0  0  0
    5.2710   -2.4650   21.5350 H   0  0  0  0  0  0  0  0  0  0  0  0
    9.0180   -0.9410   23.4300 C   0  0  0  0  0  0  0  0  0  0  0  0
    9.9720   -0.6690   22.4400 C   0  0  0  0  0  0  0  0  0  0  0  0
   11.3090   -0.5800   22.7890 C   0  0  0  0  0  0  0  0  0  0  0  0
   12.5370   -0.2190   21.6180 Cl  0  0  0  0  0  0  0  0  0  0  0  0
   11.7360   -0.7810   24.0980 C   0  0  0  0  0  0  0  0  0  0  0  0
   10.8050   -1.0810   25.0680 C   0  0  0  0  0  0  0  0  0  0  0  0
    9.4520   -1.1560   24.7410 C   0  0  0  0  0  0  0  0  0  0  0  0
    8.5030   -1.5520   25.8210 C   0  0  0  0  0  0  0  0  0  0  0  0
    8.9150   -1.9480   26.8990 O   0  0  0  0  0  0  0  0  0  0  0  0
   11.0990   -1.2840   26.0930 H   0  0  0  0  0  0  0  0  0  0  0  0
   12.7950   -0.7090   24.3140 H   0  0  0  0  0  0  0  0  0  0  0  0
    9.6610   -0.5140   21.4130 H   0  0  0  0  0  0  0  0  0  0  0  0
    6.6580    0.2560   24.4170 H   0  0  0  0  0  0  0  0  0  0  0  0
    5.6750   -1.2140   24.1320 H   0  0  0  0  0  0  0  0  0  0  0  0
    5.2550   -1.3770   26.2930 H   0  0  0  0  0  0  0  0  0  0  0  0
    6.5420   -1.2370   27.5090 H   0  0  0  0  0  0  0  0  0  0  0  0
    5.8160   -3.8130   26.0000 H   0  0  0  0  0  0  0  0  0  0  0  0
    7.0700   -3.6570   27.2480 H   0  0  0  0  0  0  0  0  0  0  0  0
    5.5250   -3.1980   29.3510 C   0  0  0  0  0  0  0  0  0  0  0  0
    4.4890   -3.5780   30.4030 C   0  0  2  0  0  0  0  0  0  0  0  0
    4.9410   -3.1660   31.8040 C   0  0  0  0  0  0  0  0  0  0  0  0
    5.0090   -2.0720   31.8540 H   0  0  0  0  0  0  0  0  0  0  0  0
    5.9290   -3.5600   32.0850 H   0  0  0  0  0  0  0  0  0  0  0  0
    4.2180   -3.5010   32.5530 H   0  0  0  0  0  0  0  0  0  0  0  0
    4.2200   -4.9760   30.3530 O   0  0  0  0  0  0  0  0  0  0  0  0
    3.5590   -3.0360   30.1690 H   0  0  0  0  0  0  0  0  0  0  0  0
    5.6960   -2.1190   29.3950 H   0  0  0  0  0  0  0  0  0  0  0  0
    6.4650   -3.7180   29.5720 H   0  0  0  0  0  0  0  0  0  0  0  0
    4.2150   -3.0350   27.7150 H   0  0  0  0  0  0  0  0  0  0  0  0
    4.2780   -5.3020   26.9850 H   0  0  0  0  0  0  0  0  0  0  0  0
    5.6370   -5.6140   28.0870 H   0  0  0  0  0  0  0  0  0  0  0  0
    3.7590   -6.5190   29.1680 H   0  0  0  0  0  0  0  0  0  0  0  0
    1.6610   -5.2540   29.6410 H   0  0  0  0  0  0  0  0  0  0  0  0
    2.2290   -3.9170   28.6100 H   0  0  0  0  0  0  0  0  0  0  0  0
    1.9260   -5.5080   27.9000 H   0  0  0  0  0  0  0  0  0  0  0  0
  1  2  1  0  0  0  0
  1 70  1  0  0  0  0
  1 71  1  0  0  0  0
  1 72  1  0  0  0  0
  2  3  1  0  0  0  0
  2 62  1  0  0  0  0
  2 69  1  1  0  0  0
  3  4  1  0  0  0  0
  3 67  1  0  0  0  0
  3 68  1  0  0  0  0
  4  5  1  0  0  0  0
  4 56  1  0  0  0  0
  4 66  1  6  0  0  0
  5  6  1  0  0  0  0
  5 54  1  0  0  0  0
  5 55  1  0  0  0  0
  6  7  1  0  0  0  0
  6 52  1  0  0  0  0
  6 53  1  0  0  0  0
  7  8  1  0  0  0  0
  7 45  1  0  0  0  0
  8  9  1  0  0  0  0
  8 50  1  0  0  0  0
  8 51  1  0  0  0  0
  9 10  1  6  0  0  0
  9 30  1  0  0  0  0
  9 38  1  0  0  0  0
 10 11  2  0  0  0  0
 10 12  1  0  0  0  0
 12 13  1  0  0  0  0
 12 29  1  0  0  0  0
 13 14  2  0  0  0  0
 13 22  1  0  0  0  0
 14 15  1  0  0  0  0
 14 28  1  0  0  0  0
 15 16  2  0  0  0  0
 16 17  1  0  0  0  0
 16 27  1  0  0  0  0
 17 18  2  0  0  0  0
 17 22  1  0  0  0  0
 18 19  1  0  0  0  0
 18 26  1  0  0  0  0
 19 20  2  0  0  0  0
 19 25  1  0  0  0  0
 20 21  1  0  0  0  0
 20 24  1  0  0  0  0
 21 22  2  0  0  0  0
 21 23  1  0  0  0  0
 29 30  1  0  0  0  0
 29 36  1  0  0  0  0
 29 37  1  0  0  0  0
 30 31  1  0  0  0  0
 30 35  1  6  0  0  0
 31 32  1  0  0  0  0
 31 33  1  0  0  0  0
 31 34  1  0  0  0  0
 38 39  2  0  0  0  0
 38 44  1  0  0  0  0
 39 40  1  0  0  0  0
 39 49  1  0  0  0  0
 40 41  1  0  0  0  0
 40 42  2  0  0  0  0
 42 43  1  0  0  0  0
 42 48  1  0  0  0  0
 43 44  2  0  0  0  0
 43 47  1  0  0  0  0
 44 45  1  0  0  0  0
 45 46  2  0  0  0  0
 56 57  1  0  0  0  0
 56 64  1  0  0  0  0
 56 65  1  0  0  0  0
 57 58  1  0  0  0  0
 57 62  1  0  0  0  0
 57 63  1  6  0  0  0
 58 59  1  0  0  0  0
 58 60  1  0  0  0  0
 58 61  1  0  0  0  0
M  CHG  1   4   1
M  END
>  <MODEL>
       5

$$$$
best_conformers_10.pdb
 OpenBabel02042510453D

 72 77  0  0  1  0  0  0  0  0999 V2000
    4.5920    5.2630   25.5130 C   0  0  0  0  0  0  0  0  0  0  0  0
    5.6820    5.1710   24.4680 C   0  0  1  0  0  0  0  0  0  0  0  0
    6.4710    3.8780   24.5480 C   0  0  0  0  0  0  0  0  0  0  0  0
    7.5540    3.8520   23.4930 N   0  3  1  0  0  0  0  0  0  0  0  0
    7.9290    2.4640   23.1060 C   0  0  0  0  0  0  0  0  0  0  0  0
    8.4950    1.7280   24.3120 C   0  0  0  0  0  0  0  0  0  0  0  0
    9.0190    0.4300   23.9390 N   0  0  0  0  0  0  0  0  0  0  0  0
    8.1260   -0.6910   23.7430 C   0  0  0  0  0  0  0  0  0  0  0  0
    8.3270   -1.3670   22.3610 C   0  0  2  0  0  0  0  0  0  0  0  0
    7.8150   -0.4320   21.2350 C   0  0  0  0  0  0  0  0  0  0  0  0
    8.4240    0.4650   20.6870 O   0  0  0  0  0  0  0  0  0  0  0  0
    6.5190   -0.7750   20.9290 N   0  0  0  0  0  0  0  0  0  0  0  0
    5.8720   -0.1730   19.8280 C   0  0  0  0  0  0  0  0  0  0  0  0
    6.3300   -0.4330   18.5600 C   0  0  0  0  0  0  0  0  0  0  0  0
    5.8120    0.1100   17.4350 N   0  0  0  0  0  0  0  0  0  0  0  0
    4.8180    0.9560   17.5870 C   0  0  0  0  0  0  0  0  0  0  0  0
    4.2590    1.3220   18.8450 C   0  0  0  0  0  0  0  0  0  0  0  0
    3.2180    2.2800   18.9540 C   0  0  0  0  0  0  0  0  0  0  0  0
    2.7140    2.6180   20.1810 C   0  0  0  0  0  0  0  0  0  0  0  0
    3.2100    2.0070   21.3540 C   0  0  0  0  0  0  0  0  0  0  0  0
    4.2240    1.0790   21.2760 C   0  0  0  0  0  0  0  0  0  0  0  0
    4.7800    0.7250   20.0150 C   0  0  0  0  0  0  0  0  0  0  0  0
    4.6110    0.6290   22.1850 H   0  0  0  0  0  0  0  0  0  0  0  0
    2.8110    2.2990   22.3230 H   0  0  0  0  0  0  0  0  0  0  0  0
    1.9290    3.3650   20.2620 H   0  0  0  0  0  0  0  0  0  0  0  0
    2.8480    2.7380   18.0430 H   0  0  0  0  0  0  0  0  0  0  0  0
    4.4050    1.4100   16.6870 H   0  0  0  0  0  0  0  0  0  0  0  0
    7.1630   -1.1190   18.4220 H   0  0  0  0  0  0  0  0  0  0  0  0
    6.0460   -1.9500   21.6260 C   0  0  0  0  0  0  0  0  0  0  0  0
    7.3390   -2.5670   22.2040 C   0  0  2  0  0  0  0  0  0  0  0  0
    7.0250   -3.3880   23.4520 C   0  0  0  0  0  0  0  0  0  0  0  0
    7.9260   -3.8040   23.9150 H   0  0  0  0  0  0  0  0  0  0  0  0
    6.5070   -2.7740   24.2010 H   0  0  0  0  0  0  0  0  0  0  0  0
    6.3520   -4.2150   23.1950 H   0  0  0  0  0  0  0  0  0  0  0  0
    7.7490   -3.2360   21.4420 H   0  0  0  0  0  0  0  0  0  0  0  0
    5.5290   -2.6310   20.9420 H   0  0  0  0  0  0  0  0  0  0  0  0
    5.3380   -1.6920   22.4320 H   0  0  0  0  0  0  0  0  0  0  0  0
    9.8210   -1.6300   22.1860 C   0  0  0  0  0  0  0  0  0  0  0  0
   10.3130   -2.5060   21.2140 C   0  0  0  0  0  0  0  0  0  0  0  0
   11.6650   -2.5210   20.8840 C   0  0  0  0  0  0  0  0  0  0  0  0
   12.2550   -3.4180   19.4790 Cl  0  0  0  0  0  0  0  0  0  0  0  0
   12.6010   -1.8190   21.6360 C   0  0  0  0  0  0  0  0  0  0  0  0
   12.1370   -1.0110   22.6480 C   0  0  0  0  0  0  0  0  0  0  0  0
   10.7700   -0.8480   22.8570 C   0  0  0  0  0  0  0  0  0  0  0  0
   10.3580    0.2950   23.7250 C   0  0  0  0  0  0  0  0  0  0  0  0
   11.1860    1.0920   24.1510 O   0  0  0  0  0  0  0  0  0  0  0  0
   12.8170   -0.4430   23.2670 H   0  0  0  0  0  0  0  0  0  0  0  0
   13.6510   -1.8470   21.3700 H   0  0  0  0  0  0  0  0  0  0  0  0
    9.6290   -3.1400   20.6710 H   0  0  0  0  0  0  0  0  0  0  0  0
    8.3300   -1.4410   24.5210 H   0  0  0  0  0  0  0  0  0  0  0  0
    7.0930   -0.3400   23.8540 H   0  0  0  0  0  0  0  0  0  0  0  0
    9.3110    2.3200   24.7250 H   0  0  0  0  0  0  0  0  0  0  0  0
    7.7390    1.6150   25.1010 H   0  0  0  0  0  0  0  0  0  0  0  0
    8.6850    2.5050   22.3180 H   0  0  0  0  0  0  0  0  0  0  0  0
    7.0560    1.9430   22.6960 H   0  0  0  0  0  0  0  0  0  0  0  0
    7.2040    4.7100   22.3110 C   0  0  0  0  0  0  0  0  0  0  0  0
    5.6950    4.7380   22.0900 C   0  0  2  0  0  0  0  0  0  0  0  0
    5.2660    5.5860   20.9120 C   0  0  0  0  0  0  0  0  0  0  0  0
    5.6470    5.2010   19.9630 H   0  0  0  0  0  0  0  0  0  0  0  0
    5.6160    6.6150   21.0440 H   0  0  0  0  0  0  0  0  0  0  0  0
    4.1720    5.5940   20.8670 H   0  0  0  0  0  0  0  0  0  0  0  0
    5.0260    5.2920   23.2160 O   0  0  0  0  0  0  0  0  0  0  0  0
    5.3430    3.7040   21.9370 H   0  0  0  0  0  0  0  0  0  0  0  0
    7.7180    4.3160   21.4290 H   0  0  0  0  0  0  0  0  0  0  0  0
    7.5760    5.7220   22.4930 H   0  0  0  0  0  0  0  0  0  0  0  0
    8.4040    4.2630   23.9180 H   0  0  0  0  0  0  0  0  0  0  0  0
    5.8010    3.0260   24.3930 H   0  0  0  0  0  0  0  0  0  0  0  0
    6.9290    3.7790   25.5360 H   0  0  0  0  0  0  0  0  0  0  0  0
    6.3860    6.0110   24.5900 H   0  0  0  0  0  0  0  0  0  0  0  0
    3.8830    4.4400   25.3700 H   0  0  0  0  0  0  0  0  0  0  0  0
    4.0520    6.2050   25.3910 H   0  0  0  0  0  0  0  0  0  0  0  0
    4.9950    5.2130   26.5300 H   0  0  0  0  0  0  0  0  0  0  0  0
  1  2  1  0  0  0  0
  1 70  1  0  0  0  0
  1 71  1  0  0  0  0
  1 72  1  0  0  0  0
  2  3  1  0  0  0  0
  2 62  1  0  0  0  0
  2 69  1  1  0  0  0
  3  4  1  0  0  0  0
  3 67  1  0  0  0  0
  3 68  1  0  0  0  0
  4  5  1  0  0  0  0
  4 56  1  0  0  0  0
  4 66  1  1  0  0  0
  5  6  1  0  0  0  0
  5 54  1  0  0  0  0
  5 55  1  0  0  0  0
  6  7  1  0  0  0  0
  6 52  1  0  0  0  0
  6 53  1  0  0  0  0
  7  8  1  0  0  0  0
  7 45  1  0  0  0  0
  8  9  1  0  0  0  0
  8 50  1  0  0  0  0
  8 51  1  0  0  0  0
  9 10  1  6  0  0  0
  9 30  1  0  0  0  0
  9 38  1  0  0  0  0
 10 11  2  0  0  0  0
 10 12  1  0  0  0  0
 12 13  1  0  0  0  0
 12 29  1  0  0  0  0
 13 14  2  0  0  0  0
 13 22  1  0  0  0  0
 14 15  1  0  0  0  0
 14 28  1  0  0  0  0
 15 16  2  0  0  0  0
 16 17  1  0  0  0  0
 16 27  1  0  0  0  0
 17 18  2  0  0  0  0
 17 22  1  0  0  0  0
 18 19  1  0  0  0  0
 18 26  1  0  0  0  0
 19 20  2  0  0  0  0
 19 25  1  0  0  0  0
 20 21  1  0  0  0  0
 20 24  1  0  0  0  0
 21 22  2  0  0  0  0
 21 23  1  0  0  0  0
 29 30  1  0  0  0  0
 29 36  1  0  0  0  0
 29 37  1  0  0  0  0
 30 31  1  0  0  0  0
 30 35  1  6  0  0  0
 31 32  1  0  0  0  0
 31 33  1  0  0  0  0
 31 34  1  0  0  0  0
 38 39  2  0  0  0  0
 38 44  1  0  0  0  0
 39 40  1  0  0  0  0
 39 49  1  0  0  0  0
 40 41  1  0  0  0  0
 40 42  2  0  0  0  0
 42 43  1  0  0  0  0
 42 48  1  0  0  0  0
 43 44  2  0  0  0  0
 43 47  1  0  0  0  0
 44 45  1  0  0  0  0
 45 46  2  0  0  0  0
 56 57  1  0  0  0  0
 56 64  1  0  0  0  0
 56 65  1  0  0  0  0
 57 58  1  0  0  0  0
 57 62  1  0  0  0  0
 57 63  1  6  0  0  0
 58 59  1  0  0  0  0
 58 60  1  0  0  0  0
 58 61  1  0  0  0  0
M  CHG  1   4   1
M  END
>  <MODEL>
       6

$$$$
best_conformers_10.pdb
 OpenBabel02042510453D

 72 77  0  0  1  0  0  0  0  0999 V2000
    2.9020   -3.8430   29.7880 C   0  0  0  0  0  0  0  0  0  0  0  0
    4.0160   -2.9850   30.3880 C   0  0  1  0  0  0  0  0  0  0  0  0
    5.1060   -2.6260   29.3690 C   0  0  0  0  0  0  0  0  0  0  0  0
    4.6760   -1.5310   28.4130 N   0  3  2  0  0  0  0  0  0  0  0  0
    5.7790   -1.0650   27.5140 C   0  0  0  0  0  0  0  0  0  0  0  0
    6.1610   -2.0900   26.4410 C   0  0  0  0  0  0  0  0  0  0  0  0
    7.1320   -1.5800   25.4770 N   0  0  0  0  0  0  0  0  0  0  0  0
    6.6690   -0.8470   24.3110 C   0  0  0  0  0  0  0  0  0  0  0  0
    7.5590   -1.0890   23.0690 C   0  0  2  0  0  0  0  0  0  0  0  0
    7.1160   -0.0930   21.9800 C   0  0  0  0  0  0  0  0  0  0  0  0
    7.2720    1.1120   21.9890 O   0  0  0  0  0  0  0  0  0  0  0  0
    6.4610   -0.7850   20.9830 N   0  0  0  0  0  0  0  0  0  0  0  0
    5.8490   -0.1510   19.8670 C   0  0  0  0  0  0  0  0  0  0  0  0
    6.2560   -0.4560   18.5910 C   0  0  0  0  0  0  0  0  0  0  0  0
    5.7650    0.1190   17.4640 N   0  0  0  0  0  0  0  0  0  0  0  0
    4.8030    1.0000   17.6070 C   0  0  0  0  0  0  0  0  0  0  0  0
    4.2370    1.3670   18.8570 C   0  0  0  0  0  0  0  0  0  0  0  0
    3.1770    2.3110   18.9530 C   0  0  0  0  0  0  0  0  0  0  0  0
    2.6270    2.6250   20.1660 C   0  0  0  0  0  0  0  0  0  0  0  0
    3.1120    1.9970   21.3420 C   0  0  0  0  0  0  0  0  0  0  0  0
    4.1400    1.0900   21.2690 C   0  0  0  0  0  0  0  0  0  0  0  0
    4.7540    0.7650   20.0290 C   0  0  0  0  0  0  0  0  0  0  0  0
    4.5020    0.6210   22.1780 H   0  0  0  0  0  0  0  0  0  0  0  0
    2.6760    2.2480   22.3030 H   0  0  0  0  0  0  0  0  0  0  0  0
    1.8230    3.3510   20.2410 H   0  0  0  0  0  0  0  0  0  0  0  0
    2.8150    2.7800   18.0400 H   0  0  0  0  0  0  0  0  0  0  0  0
    4.4170    1.4630   16.6990 H   0  0  0  0  0  0  0  0  0  0  0  0
    7.0410   -1.1920   18.4230 H   0  0  0  0  0  0  0  0  0  0  0  0
    6.3340   -2.2080   21.2450 C   0  0  0  0  0  0  0  0  0  0  0  0
    7.3410   -2.4800   22.3740 C   0  0  2  0  0  0  0  0  0  0  0  0
    6.9250   -3.6550   23.2690 C   0  0  0  0  0  0  0  0  0  0  0  0
    5.9420   -3.4800   23.7250 H   0  0  0  0  0  0  0  0  0  0  0  0
    6.8630   -4.5870   22.6930 H   0  0  0  0  0  0  0  0  0  0  0  0
    7.6380   -3.8040   24.0870 H   0  0  0  0  0  0  0  0  0  0  0  0
    8.3130   -2.7250   21.9230 H   0  0  0  0  0  0  0  0  0  0  0  0
    5.3080   -2.4800   21.5400 H   0  0  0  0  0  0  0  0  0  0  0  0
    6.5530   -2.7670   20.3360 H   0  0  0  0  0  0  0  0  0  0  0  0
    9.0050   -0.8810   23.4740 C   0  0  0  0  0  0  0  0  0  0  0  0
    9.9690   -0.5700   22.5100 C   0  0  0  0  0  0  0  0  0  0  0  0
   11.2950   -0.4370   22.8830 C   0  0  0  0  0  0  0  0  0  0  0  0
   12.5080   -0.0200   21.7130 Cl  0  0  0  0  0  0  0  0  0  0  0  0
   11.7080   -0.6320   24.1970 C   0  0  0  0  0  0  0  0  0  0  0  0
   10.7630   -0.9720   25.1440 C   0  0  0  0  0  0  0  0  0  0  0  0
    9.4200   -1.0970   24.7900 C   0  0  0  0  0  0  0  0  0  0  0  0
    8.4520   -1.5760   25.8270 C   0  0  0  0  0  0  0  0  0  0  0  0
    8.8380   -1.9780   26.9130 O   0  0  0  0  0  0  0  0  0  0  0  0
   11.0550   -1.1700   26.1670 H   0  0  0  0  0  0  0  0  0  0  0  0
   12.7600   -0.5260   24.4400 H   0  0  0  0  0  0  0  0  0  0  0  0
    9.6810   -0.4180   21.4760 H   0  0  0  0  0  0  0  0  0  0  0  0
    6.6700    0.2380   24.4950 H   0  0  0  0  0  0  0  0  0  0  0  0
    5.6420   -1.1680   24.1050 H   0  0  0  0  0  0  0  0  0  0  0  0
    5.2530   -2.3800   25.8930 H   0  0  0  0  0  0  0  0  0  0  0  0
    6.5810   -2.9850   26.9100 H   0  0  0  0  0  0  0  0  0  0  0  0
    6.6610   -0.8390   28.1280 H   0  0  0  0  0  0  0  0  0  0  0  0
    5.4400   -0.1370   27.0390 H   0  0  0  0  0  0  0  0  0  0  0  0
    4.1270   -0.3830   29.2110 C   0  0  0  0  0  0  0  0  0  0  0  0
    3.0260   -0.8370   30.1630 C   0  0  2  0  0  0  0  0  0  0  0  0
    2.5110    0.3250   31.0000 C   0  0  0  0  0  0  0  0  0  0  0  0
    3.3240    0.7480   31.6060 H   0  0  0  0  0  0  0  0  0  0  0  0
    1.7090    0.0070   31.6760 H   0  0  0  0  0  0  0  0  0  0  0  0
    2.1210    1.1180   30.3490 H   0  0  0  0  0  0  0  0  0  0  0  0
    3.5200   -1.8280   31.0540 O   0  0  0  0  0  0  0  0  0  0  0  0
    2.2020   -1.2500   29.5580 H   0  0  0  0  0  0  0  0  0  0  0  0
    3.7360    0.3780   28.5260 H   0  0  0  0  0  0  0  0  0  0  0  0
    4.9410    0.0620   29.7970 H   0  0  0  0  0  0  0  0  0  0  0  0
    3.9100   -1.8930   27.8050 H   0  0  0  0  0  0  0  0  0  0  0  0
    5.9860   -2.2670   29.9120 H   0  0  0  0  0  0  0  0  0  0  0  0
    5.3770   -3.5180   28.7980 H   0  0  0  0  0  0  0  0  0  0  0  0
    4.4920   -3.5580   31.1920 H   0  0  0  0  0  0  0  0  0  0  0  0
    3.3050   -4.8100   29.4610 H   0  0  0  0  0  0  0  0  0  0  0  0
    2.1230   -4.0240   30.5380 H   0  0  0  0  0  0  0  0  0  0  0  0
    2.4390   -3.3670   28.9120 H   0  0  0  0  0  0  0  0  0  0  0  0
  1  2  1  0  0  0  0
  1 70  1  0  0  0  0
  1 71  1  0  0  0  0
  1 72  1  0  0  0  0
  2  3  1  0  0  0  0
  2 62  1  0  0  0  0
  2 69  1  1  0  0  0
  3  4  1  0  0  0  0
  3 67  1  0  0  0  0
  3 68  1  0  0  0  0
  4  5  1  0  0  0  0
  4 56  1  0  0  0  0
  4 66  1  6  0  0  0
  5  6  1  0  0  0  0
  5 54  1  0  0  0  0
  5 55  1  0  0  0  0
  6  7  1  0  0  0  0
  6 52  1  0  0  0  0
  6 53  1  0  0  0  0
  7  8  1  0  0  0  0
  7 45  1  0  0  0  0
  8  9  1  0  0  0  0
  8 50  1  0  0  0  0
  8 51  1  0  0  0  0
  9 10  1  6  0  0  0
  9 30  1  0  0  0  0
  9 38  1  0  0  0  0
 10 11  2  0  0  0  0
 10 12  1  0  0  0  0
 12 13  1  0  0  0  0
 12 29  1  0  0  0  0
 13 14  2  0  0  0  0
 13 22  1  0  0  0  0
 14 15  1  0  0  0  0
 14 28  1  0  0  0  0
 15 16  2  0  0  0  0
 16 17  1  0  0  0  0
 16 27  1  0  0  0  0
 17 18  2  0  0  0  0
 17 22  1  0  0  0  0
 18 19  1  0  0  0  0
 18 26  1  0  0  0  0
 19 20  2  0  0  0  0
 19 25  1  0  0  0  0
 20 21  1  0  0  0  0
 20 24  1  0  0  0  0
 21 22  2  0  0  0  0
 21 23  1  0  0  0  0
 29 30  1  0  0  0  0
 29 36  1  0  0  0  0
 29 37  1  0  0  0  0
 30 31  1  0  0  0  0
 30 35  1  6  0  0  0
 31 32  1  0  0  0  0
 31 33  1  0  0  0  0
 31 34  1  0  0  0  0
 38 39  2  0  0  0  0
 38 44  1  0  0  0  0
 39 40  1  0  0  0  0
 39 49  1  0  0  0  0
 40 41  1  0  0  0  0
 40 42  2  0  0  0  0
 42 43  1  0  0  0  0
 42 48  1  0  0  0  0
 43 44  2  0  0  0  0
 43 47  1  0  0  0  0
 44 45  1  0  0  0  0
 45 46  2  0  0  0  0
 56 57  1  0  0  0  0
 56 64  1  0  0  0  0
 56 65  1  0  0  0  0
 57 58  1  0  0  0  0
 57 62  1  0  0  0  0
 57 63  1  6  0  0  0
 58 59  1  0  0  0  0
 58 60  1  0  0  0  0
 58 61  1  0  0  0  0
M  CHG  1   4   1
M  END
>  <MODEL>
       7

$$$$
best_conformers_10.pdb
 OpenBabel02042510453D

 72 77  0  0  1  0  0  0  0  0999 V2000
    3.7840    0.0670   31.5250 C   0  0  0  0  0  0  0  0  0  0  0  0
    4.1400   -0.9980   30.5030 C   0  0  1  0  0  0  0  0  0  0  0  0
    5.1460   -0.5100   29.4710 C   0  0  0  0  0  0  0  0  0  0  0  0
    5.5630   -1.6030   28.5360 N   0  3  1  0  0  0  0  0  0  0  0  0
    6.5520   -1.1000   27.5430 C   0  0  0  0  0  0  0  0  0  0  0  0
    6.8020   -2.0940   26.4160 C   0  0  0  0  0  0  0  0  0  0  0  0
    7.6440   -1.5430   25.3760 N   0  0  0  0  0  0  0  0  0  0  0  0
    7.0710   -0.8290   24.2480 C   0  0  0  0  0  0  0  0  0  0  0  0
    7.8470   -1.0480   22.9180 C   0  0  2  0  0  0  0  0  0  0  0  0
    7.2480   -0.0540   21.9050 C   0  0  0  0  0  0  0  0  0  0  0  0
    7.3780    1.1540   21.9010 O   0  0  0  0  0  0  0  0  0  0  0  0
    6.4970   -0.7480   20.9870 N   0  0  0  0  0  0  0  0  0  0  0  0
    5.8640   -0.1380   19.8820 C   0  0  0  0  0  0  0  0  0  0  0  0
    6.2830   -0.4530   18.6140 C   0  0  0  0  0  0  0  0  0  0  0  0
    5.7990    0.1050   17.4790 N   0  0  0  0  0  0  0  0  0  0  0  0
    4.8280    0.9780   17.6190 C   0  0  0  0  0  0  0  0  0  0  0  0
    4.2650    1.3540   18.8720 C   0  0  0  0  0  0  0  0  0  0  0  0
    3.2030    2.2920   18.9520 C   0  0  0  0  0  0  0  0  0  0  0  0
    2.6470    2.6110   20.1590 C   0  0  0  0  0  0  0  0  0  0  0  0
    3.1220    2.0050   21.3440 C   0  0  0  0  0  0  0  0  0  0  0  0
    4.1560    1.1040   21.2960 C   0  0  0  0  0  0  0  0  0  0  0  0
    4.7730    0.7710   20.0540 C   0  0  0  0  0  0  0  0  0  0  0  0
    4.5120    0.6530   22.2180 H   0  0  0  0  0  0  0  0  0  0  0  0
    2.6670    2.2610   22.2970 H   0  0  0  0  0  0  0  0  0  0  0  0
    1.8400    3.3370   20.2170 H   0  0  0  0  0  0  0  0  0  0  0  0
    2.8490    2.7490   18.0320 H   0  0  0  0  0  0  0  0  0  0  0  0
    4.4250    1.4280   16.7110 H   0  0  0  0  0  0  0  0  0  0  0  0
    7.0830   -1.1810   18.4760 H   0  0  0  0  0  0  0  0  0  0  0  0
    6.4000   -2.1610   21.2550 C   0  0  0  0  0  0  0  0  0  0  0  0
    7.5630   -2.4310   22.2220 C   0  0  2  0  0  0  0  0  0  0  0  0
    7.2840   -3.6130   23.1460 C   0  0  0  0  0  0  0  0  0  0  0  0
    8.0910   -3.7530   23.8710 H   0  0  0  0  0  0  0  0  0  0  0  0
    7.1670   -4.5360   22.5730 H   0  0  0  0  0  0  0  0  0  0  0  0
    6.3530   -3.4620   23.7060 H   0  0  0  0  0  0  0  0  0  0  0  0
    8.4570   -2.6490   21.6230 H   0  0  0  0  0  0  0  0  0  0  0  0
    6.4580   -2.7140   20.3170 H   0  0  0  0  0  0  0  0  0  0  0  0
    5.4280   -2.4020   21.7100 H   0  0  0  0  0  0  0  0  0  0  0  0
    9.3270   -0.8040   23.2130 C   0  0  0  0  0  0  0  0  0  0  0  0
   10.2480   -0.3850   22.2360 C   0  0  0  0  0  0  0  0  0  0  0  0
   11.5820   -0.2130   22.5850 C   0  0  0  0  0  0  0  0  0  0  0  0
   12.7740    0.3970   21.4810 Cl  0  0  0  0  0  0  0  0  0  0  0  0
   12.0630   -0.4990   23.8600 C   0  0  0  0  0  0  0  0  0  0  0  0
   11.1730   -0.9210   24.8210 C   0  0  0  0  0  0  0  0  0  0  0  0
    9.8270   -1.0490   24.4990 C   0  0  0  0  0  0  0  0  0  0  0  0
    8.9790   -1.5120   25.6260 C   0  0  0  0  0  0  0  0  0  0  0  0
    9.4810   -1.8520   26.6900 O   0  0  0  0  0  0  0  0  0  0  0  0
   11.4700   -1.1560   25.8420 H   0  0  0  0  0  0  0  0  0  0  0  0
   13.1210   -0.3840   24.0620 H   0  0  0  0  0  0  0  0  0  0  0  0
    9.9190   -0.1940   21.2210 H   0  0  0  0  0  0  0  0  0  0  0  0
    6.0350   -1.1600   24.1220 H   0  0  0  0  0  0  0  0  0  0  0  0
    7.0720    0.2550   24.4360 H   0  0  0  0  0  0  0  0  0  0  0  0
    5.8620   -2.4120   25.9550 H   0  0  0  0  0  0  0  0  0  0  0  0
    7.3170   -2.9750   26.8020 H   0  0  0  0  0  0  0  0  0  0  0  0
    7.4930   -0.8940   28.0550 H   0  0  0  0  0  0  0  0  0  0  0  0
    6.1970   -0.1460   27.1410 H   0  0  0  0  0  0  0  0  0  0  0  0
    6.0920   -2.7620   29.3490 C   0  0  0  0  0  0  0  0  0  0  0  0
    5.1550   -3.1550   30.4950 C   0  0  2  0  0  0  0  0  0  0  0  0
    3.9860   -4.0140   30.0230 C   0  0  0  0  0  0  0  0  0  0  0  0
    4.3340   -4.9540   29.5800 H   0  0  0  0  0  0  0  0  0  0  0  0
    3.2990   -4.2410   30.8460 H   0  0  0  0  0  0  0  0  0  0  0  0
    3.4320   -3.4690   29.2510 H   0  0  0  0  0  0  0  0  0  0  0  0
    4.7110   -2.0500   31.2600 O   0  0  0  0  0  0  0  0  0  0  0  0
    5.7770   -3.6800   31.2080 H   0  0  0  0  0  0  0  0  0  0  0  0
    7.0710   -2.4740   29.7460 H   0  0  0  0  0  0  0  0  0  0  0  0
    6.2250   -3.6300   28.7010 H   0  0  0  0  0  0  0  0  0  0  0  0
    4.7370   -1.9150   27.9870 H   0  0  0  0  0  0  0  0  0  0  0  0
    6.0400   -0.1600   29.9950 H   0  0  0  0  0  0  0  0  0  0  0  0
    4.7400    0.3210   28.8920 H   0  0  0  0  0  0  0  0  0  0  0  0
    3.2370   -1.3470   29.9780 H   0  0  0  0  0  0  0  0  0  0  0  0
    3.3280    0.9570   31.0780 H   0  0  0  0  0  0  0  0  0  0  0  0
    3.0970   -0.3470   32.2690 H   0  0  0  0  0  0  0  0  0  0  0  0
    4.7010    0.3600   32.0480 H   0  0  0  0  0  0  0  0  0  0  0  0
  1  2  1  0  0  0  0
  1 70  1  0  0  0  0
  1 71  1  0  0  0  0
  1 72  1  0  0  0  0
  2  3  1  0  0  0  0
  2 62  1  0  0  0  0
  2 69  1  6  0  0  0
  3  4  1  0  0  0  0
  3 67  1  0  0  0  0
  3 68  1  0  0  0  0
  4  5  1  0  0  0  0
  4 56  1  0  0  0  0
  4 66  1  6  0  0  0
  5  6  1  0  0  0  0
  5 54  1  0  0  0  0
  5 55  1  0  0  0  0
  6  7  1  0  0  0  0
  6 52  1  0  0  0  0
  6 53  1  0  0  0  0
  7  8  1  0  0  0  0
  7 45  1  0  0  0  0
  8  9  1  0  0  0  0
  8 50  1  0  0  0  0
  8 51  1  0  0  0  0
  9 10  1  6  0  0  0
  9 30  1  0  0  0  0
  9 38  1  0  0  0  0
 10 11  2  0  0  0  0
 10 12  1  0  0  0  0
 12 13  1  0  0  0  0
 12 29  1  0  0  0  0
 13 14  2  0  0  0  0
 13 22  1  0  0  0  0
 14 15  1  0  0  0  0
 14 28  1  0  0  0  0
 15 16  2  0  0  0  0
 16 17  1  0  0  0  0
 16 27  1  0  0  0  0
 17 18  2  0  0  0  0
 17 22  1  0  0  0  0
 18 19  1  0  0  0  0
 18 26  1  0  0  0  0
 19 20  2  0  0  0  0
 19 25  1  0  0  0  0
 20 21  1  0  0  0  0
 20 24  1  0  0  0  0
 21 22  2  0  0  0  0
 21 23  1  0  0  0  0
 29 30  1  0  0  0  0
 29 36  1  0  0  0  0
 29 37  1  0  0  0  0
 30 31  1  0  0  0  0
 30 35  1  6  0  0  0
 31 32  1  0  0  0  0
 31 33  1  0  0  0  0
 31 34  1  0  0  0  0
 38 39  2  0  0  0  0
 38 44  1  0  0  0  0
 39 40  1  0  0  0  0
 39 49  1  0  0  0  0
 40 41  1  0  0  0  0
 40 42  2  0  0  0  0
 42 43  1  0  0  0  0
 42 48  1  0  0  0  0
 43 44  2  0  0  0  0
 43 47  1  0  0  0  0
 44 45  1  0  0  0  0
 45 46  2  0  0  0  0
 56 57  1  0  0  0  0
 56 64  1  0  0  0  0
 56 65  1  0  0  0  0
 57 58  1  0  0  0  0
 57 62  1  0  0  0  0
 57 63  1  1  0  0  0
 58 59  1  0  0  0  0
 58 60  1  0  0  0  0
 58 61  1  0  0  0  0
M  CHG  1   4   1
M  END
>  <MODEL>
       8

$$$$
best_conformers_10.pdb
 OpenBabel02042510453D

 72 77  0  0  1  0  0  0  0  0999 V2000
    6.9450    3.1910   28.3650 C   0  0  0  0  0  0  0  0  0  0  0  0
    5.6670    2.6100   28.9560 C   0  0  1  0  0  0  0  0  0  0  0  0
    5.0300    1.5940   28.0120 C   0  0  0  0  0  0  0  0  0  0  0  0
    5.8460    0.3290   27.9040 N   0  3  2  0  0  0  0  0  0  0  0  0
    5.0910   -0.6860   27.0960 C   0  0  0  0  0  0  0  0  0  0  0  0
    5.9670   -1.7660   26.4780 C   0  0  0  0  0  0  0  0  0  0  0  0
    6.9760   -1.2350   25.5720 N   0  0  0  0  0  0  0  0  0  0  0  0
    6.5560   -0.6980   24.2800 C   0  0  0  0  0  0  0  0  0  0  0  0
    7.4910   -1.0590   23.0850 C   0  0  2  0  0  0  0  0  0  0  0  0
    7.1090   -0.0880   21.9570 C   0  0  0  0  0  0  0  0  0  0  0  0
    7.2960    1.1110   21.9320 O   0  0  0  0  0  0  0  0  0  0  0  0
    6.4460   -0.7910   20.9780 N   0  0  0  0  0  0  0  0  0  0  0  0
    5.8400   -0.1570   19.8740 C   0  0  0  0  0  0  0  0  0  0  0  0
    6.2720   -0.4610   18.6100 C   0  0  0  0  0  0  0  0  0  0  0  0
    5.7990    0.1040   17.4730 N   0  0  0  0  0  0  0  0  0  0  0  0
    4.8310    0.9810   17.6100 C   0  0  0  0  0  0  0  0  0  0  0  0
    4.2620    1.3540   18.8620 C   0  0  0  0  0  0  0  0  0  0  0  0
    3.2060    2.3010   18.9420 C   0  0  0  0  0  0  0  0  0  0  0  0
    2.6490    2.6150   20.1500 C   0  0  0  0  0  0  0  0  0  0  0  0
    3.1150    2.0010   21.3350 C   0  0  0  0  0  0  0  0  0  0  0  0
    4.1430    1.0950   21.2870 C   0  0  0  0  0  0  0  0  0  0  0  0
    4.7580    0.7620   20.0430 C   0  0  0  0  0  0  0  0  0  0  0  0
    4.4950    0.6400   22.2090 H   0  0  0  0  0  0  0  0  0  0  0  0
    2.6550    2.2550   22.2870 H   0  0  0  0  0  0  0  0  0  0  0  0
    1.8390    3.3360   20.2050 H   0  0  0  0  0  0  0  0  0  0  0  0
    2.8550    2.7590   18.0210 H   0  0  0  0  0  0  0  0  0  0  0  0
    4.4360    1.4380   16.7020 H   0  0  0  0  0  0  0  0  0  0  0  0
    7.0740   -1.1870   18.4900 H   0  0  0  0  0  0  0  0  0  0  0  0
    6.2310   -2.1900   21.2860 C   0  0  0  0  0  0  0  0  0  0  0  0
    7.2450   -2.4580   22.4040 C   0  0  2  0  0  0  0  0  0  0  0  0
    6.8290   -3.6090   23.3080 C   0  0  0  0  0  0  0  0  0  0  0  0
    6.7650   -4.5400   22.7330 H   0  0  0  0  0  0  0  0  0  0  0  0
    5.8450   -3.4160   23.7500 H   0  0  0  0  0  0  0  0  0  0  0  0
    7.5440   -3.7490   24.1240 H   0  0  0  0  0  0  0  0  0  0  0  0
    8.1990   -2.7170   21.9210 H   0  0  0  0  0  0  0  0  0  0  0  0
    6.3950   -2.7990   20.3950 H   0  0  0  0  0  0  0  0  0  0  0  0
    5.1950   -2.3800   21.6110 H   0  0  0  0  0  0  0  0  0  0  0  0
    8.9280   -0.8790   23.5190 C   0  0  0  0  0  0  0  0  0  0  0  0
    9.9360   -0.5860   22.5930 C   0  0  0  0  0  0  0  0  0  0  0  0
   11.2500   -0.4810   23.0170 C   0  0  0  0  0  0  0  0  0  0  0  0
   12.4980   -0.1210   21.8660 Cl  0  0  0  0  0  0  0  0  0  0  0  0
   11.6120   -0.6800   24.3470 C   0  0  0  0  0  0  0  0  0  0  0  0
   10.6200   -1.0000   25.2500 C   0  0  0  0  0  0  0  0  0  0  0  0
    9.2930   -1.0940   24.8470 C   0  0  0  0  0  0  0  0  0  0  0  0
    8.2810   -1.5050   25.8620 C   0  0  0  0  0  0  0  0  0  0  0  0
    8.6200   -2.0680   26.8940 O   0  0  0  0  0  0  0  0  0  0  0  0
   10.8460   -1.1890   26.2910 H   0  0  0  0  0  0  0  0  0  0  0  0
   12.6500   -0.5970   24.6570 H   0  0  0  0  0  0  0  0  0  0  0  0
    9.6900   -0.4320   21.5490 H   0  0  0  0  0  0  0  0  0  0  0  0
    5.5380   -1.0400   24.0600 H   0  0  0  0  0  0  0  0  0  0  0  0
    6.5090    0.3990   24.3250 H   0  0  0  0  0  0  0  0  0  0  0  0
    6.4990   -2.3170   27.2520 H   0  0  0  0  0  0  0  0  0  0  0  0
    5.3190   -2.4690   25.9380 H   0  0  0  0  0  0  0  0  0  0  0  0
    4.3290   -1.1560   27.7310 H   0  0  0  0  0  0  0  0  0  0  0  0
    4.5670   -0.1480   26.3010 H   0  0  0  0  0  0  0  0  0  0  0  0
    6.1870   -0.1700   29.2910 C   0  0  0  0  0  0  0  0  0  0  0  0
    6.7730    0.9390   30.1800 C   0  0  2  0  0  0  0  0  0  0  0  0
    7.1280    0.4320   31.5710 C   0  0  0  0  0  0  0  0  0  0  0  0
    7.6010    1.2420   32.1420 H   0  0  0  0  0  0  0  0  0  0  0  0
    6.2500    0.0760   32.1190 H   0  0  0  0  0  0  0  0  0  0  0  0
    7.8330   -0.4090   31.4780 H   0  0  0  0  0  0  0  0  0  0  0  0
    5.8790    2.0440   30.2540 O   0  0  0  0  0  0  0  0  0  0  0  0
    7.7030    1.3260   29.7490 H   0  0  0  0  0  0  0  0  0  0  0  0
    6.8700   -1.0230   29.1990 H   0  0  0  0  0  0  0  0  0  0  0  0
    5.2830   -0.5510   29.7750 H   0  0  0  0  0  0  0  0  0  0  0  0
    6.7310    0.5130   27.3840 H   0  0  0  0  0  0  0  0  0  0  0  0
    4.0370    1.3250   28.3850 H   0  0  0  0  0  0  0  0  0  0  0  0
    4.9090    2.0020   27.0040 H   0  0  0  0  0  0  0  0  0  0  0  0
    4.9290    3.3990   29.1200 H   0  0  0  0  0  0  0  0  0  0  0  0
    6.7430    3.7880   27.4700 H   0  0  0  0  0  0  0  0  0  0  0  0
    7.4290    3.8240   29.1110 H   0  0  0  0  0  0  0  0  0  0  0  0
    7.6420    2.3960   28.0700 H   0  0  0  0  0  0  0  0  0  0  0  0
  1  2  1  0  0  0  0
  1 70  1  0  0  0  0
  1 71  1  0  0  0  0
  1 72  1  0  0  0  0
  2  3  1  0  0  0  0
  2 62  1  0  0  0  0
  2 69  1  1  0  0  0
  3  4  1  0  0  0  0
  3 67  1  0  0  0  0
  3 68  1  0  0  0  0
  4  5  1  0  0  0  0
  4 56  1  0  0  0  0
  4 66  1  6  0  0  0
  5  6  1  0  0  0  0
  5 54  1  0  0  0  0
  5 55  1  0  0  0  0
  6  7  1  0  0  0  0
  6 52  1  0  0  0  0
  6 53  1  0  0  0  0
  7  8  1  0  0  0  0
  7 45  1  0  0  0  0
  8  9  1  0  0  0  0
  8 50  1  0  0  0  0
  8 51  1  0  0  0  0
  9 10  1  6  0  0  0
  9 30  1  0  0  0  0
  9 38  1  0  0  0  0
 10 11  2  0  0  0  0
 10 12  1  0  0  0  0
 12 13  1  0  0  0  0
 12 29  1  0  0  0  0
 13 14  2  0  0  0  0
 13 22  1  0  0  0  0
 14 15  1  0  0  0  0
 14 28  1  0  0  0  0
 15 16  2  0  0  0  0
 16 17  1  0  0  0  0
 16 27  1  0  0  0  0
 17 18  2  0  0  0  0
 17 22  1  0  0  0  0
 18 19  1  0  0  0  0
 18 26  1  0  0  0  0
 19 20  2  0  0  0  0
 19 25  1  0  0  0  0
 20 21  1  0  0  0  0
 20 24  1  0  0  0  0
 21 22  2  0  0  0  0
 21 23  1  0  0  0  0
 29 30  1  0  0  0  0
 29 36  1  0  0  0  0
 29 37  1  0  0  0  0
 30 31  1  0  0  0  0
 30 35  1  6  0  0  0
 31 32  1  0  0  0  0
 31 33  1  0  0  0  0
 31 34  1  0  0  0  0
 38 39  2  0  0  0  0
 38 44  1  0  0  0  0
 39 40  1  0  0  0  0
 39 49  1  0  0  0  0
 40 41  1  0  0  0  0
 40 42  2  0  0  0  0
 42 43  1  0  0  0  0
 42 48  1  0  0  0  0
 43 44  2  0  0  0  0
 43 47  1  0  0  0  0
 44 45  1  0  0  0  0
 45 46  2  0  0  0  0
 56 57  1  0  0  0  0
 56 64  1  0  0  0  0
 56 65  1  0  0  0  0
 57 58  1  0  0  0  0
 57 62  1  0  0  0  0
 57 63  1  6  0  0  0
 58 59  1  0  0  0  0
 58 60  1  0  0  0  0
 58 61  1  0  0  0  0
M  CHG  1   4   1
M  END
>  <MODEL>
       9

$$$$
best_conformers_10.pdb
 OpenBabel02042510453D

 72 77  0  0  1  0  0  0  0  0999 V2000
    0.9110   -2.6540   28.6120 C   0  0  0  0  0  0  0  0  0  0  0  0
    2.2970   -2.2720   29.1070 C   0  0  1  0  0  0  0  0  0  0  0  0
    3.1980   -1.8440   27.9510 C   0  0  0  0  0  0  0  0  0  0  0  0
    4.5580   -1.4090   28.4510 N   0  3  1  0  0  0  0  0  0  0  0  0
    5.4580   -0.9070   27.3620 C   0  0  0  0  0  0  0  0  0  0  0  0
    5.9510   -2.0150   26.4220 C   0  0  0  0  0  0  0  0  0  0  0  0
    6.9650   -1.5550   25.4790 N   0  0  0  0  0  0  0  0  0  0  0  0
    6.5520   -0.8270   24.2940 C   0  0  0  0  0  0  0  0  0  0  0  0
    7.4940   -1.0850   23.0920 C   0  0  2  0  0  0  0  0  0  0  0  0
    7.0990   -0.0950   21.9830 C   0  0  0  0  0  0  0  0  0  0  0  0
    7.2730    1.1090   21.9870 O   0  0  0  0  0  0  0  0  0  0  0  0
    6.4580   -0.7880   20.9800 N   0  0  0  0  0  0  0  0  0  0  0  0
    5.8490   -0.1510   19.8660 C   0  0  0  0  0  0  0  0  0  0  0  0
    6.2570   -0.4560   18.5920 C   0  0  0  0  0  0  0  0  0  0  0  0
    5.7670    0.1180   17.4640 N   0  0  0  0  0  0  0  0  0  0  0  0
    4.8050    0.9990   17.6070 C   0  0  0  0  0  0  0  0  0  0  0  0
    4.2380    1.3670   18.8590 C   0  0  0  0  0  0  0  0  0  0  0  0
    3.1770    2.3110   18.9540 C   0  0  0  0  0  0  0  0  0  0  0  0
    2.6280    2.6230   20.1660 C   0  0  0  0  0  0  0  0  0  0  0  0
    3.1120    1.9960   21.3400 C   0  0  0  0  0  0  0  0  0  0  0  0
    4.1380    1.0900   21.2710 C   0  0  0  0  0  0  0  0  0  0  0  0
    4.7540    0.7650   20.0300 C   0  0  0  0  0  0  0  0  0  0  0  0
    4.4990    0.6200   22.1800 H   0  0  0  0  0  0  0  0  0  0  0  0
    2.6740    2.2480   22.3030 H   0  0  0  0  0  0  0  0  0  0  0  0
    1.8230    3.3510   20.2400 H   0  0  0  0  0  0  0  0  0  0  0  0
    2.8170    2.7800   18.0390 H   0  0  0  0  0  0  0  0  0  0  0  0
    4.4180    1.4620   16.7000 H   0  0  0  0  0  0  0  0  0  0  0  0
    7.0410   -1.1930   18.4260 H   0  0  0  0  0  0  0  0  0  0  0  0
    6.3120   -2.2080   21.2480 C   0  0  0  0  0  0  0  0  0  0  0  0
    7.2900   -2.4810   22.4020 C   0  0  2  0  0  0  0  0  0  0  0  0
    6.8480   -3.6500   23.2930 C   0  0  0  0  0  0  0  0  0  0  0  0
    7.5340   -3.7910   24.1340 H   0  0  0  0  0  0  0  0  0  0  0  0
    5.8510   -3.4720   23.7160 H   0  0  0  0  0  0  0  0  0  0  0  0
    6.8030   -4.5860   22.7220 H   0  0  0  0  0  0  0  0  0  0  0  0
    8.2720   -2.7290   21.9760 H   0  0  0  0  0  0  0  0  0  0  0  0
    6.5480   -2.7760   20.3510 H   0  0  0  0  0  0  0  0  0  0  0  0
    5.2770   -2.4670   21.5240 H   0  0  0  0  0  0  0  0  0  0  0  0
    8.9260   -0.8870   23.5500 C   0  0  0  0  0  0  0  0  0  0  0  0
    9.9300   -0.6020   22.6190 C   0  0  0  0  0  0  0  0  0  0  0  0
   11.2430   -0.4810   23.0370 C   0  0  0  0  0  0  0  0  0  0  0  0
   12.4820   -0.0940   21.8820 Cl  0  0  0  0  0  0  0  0  0  0  0  0
   11.6060   -0.6640   24.3700 C   0  0  0  0  0  0  0  0  0  0  0  0
   10.6180   -0.9790   25.2840 C   0  0  0  0  0  0  0  0  0  0  0  0
    9.2870   -1.0930   24.8830 C   0  0  0  0  0  0  0  0  0  0  0  0
    8.2680   -1.5550   25.8790 C   0  0  0  0  0  0  0  0  0  0  0  0
    8.5960   -1.9540   26.9840 O   0  0  0  0  0  0  0  0  0  0  0  0
   10.8640   -1.1700   26.3220 H   0  0  0  0  0  0  0  0  0  0  0  0
   12.6480   -0.5700   24.6580 H   0  0  0  0  0  0  0  0  0  0  0  0
    9.6840   -0.4590   21.5730 H   0  0  0  0  0  0  0  0  0  0  0  0
    6.5560    0.2610   24.4720 H   0  0  0  0  0  0  0  0  0  0  0  0
    5.5300   -1.1430   24.0510 H   0  0  0  0  0  0  0  0  0  0  0  0
    5.1110   -2.4190   25.8400 H   0  0  0  0  0  0  0  0  0  0  0  0
    6.3890   -2.8220   27.0160 H   0  0  0  0  0  0  0  0  0  0  0  0
    4.9020   -0.1540   26.7850 H   0  0  0  0  0  0  0  0  0  0  0  0
    6.3150   -0.4200   27.8360 H   0  0  0  0  0  0  0  0  0  0  0  0
    4.3650   -0.3560   29.5170 C   0  0  0  0  0  0  0  0  0  0  0  0
    3.3770   -0.7770   30.6090 C   0  0  2  0  0  0  0  0  0  0  0  0
    3.9730   -1.7840   31.5940 C   0  0  0  0  0  0  0  0  0  0  0  0
    3.2130   -2.0890   32.3220 H   0  0  0  0  0  0  0  0  0  0  0  0
    4.3530   -2.6810   31.0880 H   0  0  0  0  0  0  0  0  0  0  0  0
    4.8130   -1.3280   32.1330 H   0  0  0  0  0  0  0  0  0  0  0  0
    2.1450   -1.2140   30.0460 O   0  0  0  0  0  0  0  0  0  0  0  0
    3.1000    0.1240   31.1680 H   0  0  0  0  0  0  0  0  0  0  0  0
    5.3370   -0.1240   29.9610 H   0  0  0  0  0  0  0  0  0  0  0  0
    3.9750    0.5420   29.0290 H   0  0  0  0  0  0  0  0  0  0  0  0
    5.0330   -2.2260   28.8920 H   0  0  0  0  0  0  0  0  0  0  0  0
    2.7230   -1.0040   27.4280 H   0  0  0  0  0  0  0  0  0  0  0  0
    3.3150   -2.6750   27.2510 H   0  0  0  0  0  0  0  0  0  0  0  0
    2.7630   -3.1420   29.6010 H   0  0  0  0  0  0  0  0  0  0  0  0
    0.9810   -3.4730   27.8870 H   0  0  0  0  0  0  0  0  0  0  0  0
    0.4330   -1.7970   28.1190 H   0  0  0  0  0  0  0  0  0  0  0  0
    0.2680   -2.9780   29.4370 H   0  0  0  0  0  0  0  0  0  0  0  0
  1  2  1  0  0  0  0
  1 70  1  0  0  0  0
  1 71  1  0  0  0  0
  1 72  1  0  0  0  0
  2  3  1  0  0  0  0
  2 62  1  0  0  0  0
  2 69  1  1  0  0  0
  3  4  1  0  0  0  0
  3 67  1  0  0  0  0
  3 68  1  0  0  0  0
  4  5  1  0  0  0  0
  4 56  1  0  0  0  0
  4 66  1  1  0  0  0
  5  6  1  0  0  0  0
  5 54  1  0  0  0  0
  5 55  1  0  0  0  0
  6  7  1  0  0  0  0
  6 52  1  0  0  0  0
  6 53  1  0  0  0  0
  7  8  1  0  0  0  0
  7 45  1  0  0  0  0
  8  9  1  0  0  0  0
  8 50  1  0  0  0  0
  8 51  1  0  0  0  0
  9 10  1  6  0  0  0
  9 30  1  0  0  0  0
  9 38  1  0  0  0  0
 10 11  2  0  0  0  0
 10 12  1  0  0  0  0
 12 13  1  0  0  0  0
 12 29  1  0  0  0  0
 13 14  2  0  0  0  0
 13 22  1  0  0  0  0
 14 15  1  0  0  0  0
 14 28  1  0  0  0  0
 15 16  2  0  0  0  0
 16 17  1  0  0  0  0
 16 27  1  0  0  0  0
 17 18  2  0  0  0  0
 17 22  1  0  0  0  0
 18 19  1  0  0  0  0
 18 26  1  0  0  0  0
 19 20  2  0  0  0  0
 19 25  1  0  0  0  0
 20 21  1  0  0  0  0
 20 24  1  0  0  0  0
 21 22  2  0  0  0  0
 21 23  1  0  0  0  0
 29 30  1  0  0  0  0
 29 36  1  0  0  0  0
 29 37  1  0  0  0  0
 30 31  1  0  0  0  0
 30 35  1  6  0  0  0
 31 32  1  0  0  0  0
 31 33  1  0  0  0  0
 31 34  1  0  0  0  0
 38 39  2  0  0  0  0
 38 44  1  0  0  0  0
 39 40  1  0  0  0  0
 39 49  1  0  0  0  0
 40 41  1  0  0  0  0
 40 42  2  0  0  0  0
 42 43  1  0  0  0  0
 42 48  1  0  0  0  0
 43 44  2  0  0  0  0
 43 47  1  0  0  0  0
 44 45  1  0  0  0  0
 45 46  2  0  0  0  0
 56 57  1  0  0  0  0
 56 64  1  0  0  0  0
 56 65  1  0  0  0  0
 57 58  1  0  0  0  0
 57 62  1  0  0  0  0
 57 63  1  1  0  0  0
 58 59  1  0  0  0  0
 58 60  1  0  0  0  0
 58 61  1  0  0  0  0
M  CHG  1   4   1
M  END
>  <MODEL>
      10

$$$$
best_conformers_10.pdb
 OpenBabel02042510453D

 72 77  0  0  1  0  0  0  0  0999 V2000
    4.0680   -6.5000   30.0350 C   0  0  0  0  0  0  0  0  0  0  0  0
    4.1220   -5.0040   29.7760 C   0  0  1  0  0  0  0  0  0  0  0  0
    4.9130   -4.7250   28.5090 C   0  0  0  0  0  0  0  0  0  0  0  0
    4.9160   -3.2640   28.1650 N   0  3  1  0  0  0  0  0  0  0  0  0
    5.6650   -3.0320   26.8850 C   0  0  0  0  0  0  0  0  0  0  0  0
    5.9160   -1.5470   26.5960 C   0  0  0  0  0  0  0  0  0  0  0  0
    6.9210   -1.3180   25.5580 N   0  0  0  0  0  0  0  0  0  0  0  0
    6.5340   -0.6960   24.2990 C   0  0  0  0  0  0  0  0  0  0  0  0
    7.4460   -1.0880   23.1060 C   0  0  2  0  0  0  0  0  0  0  0  0
    7.1150   -0.1150   21.9590 C   0  0  0  0  0  0  0  0  0  0  0  0
    7.3500    1.0750   21.9230 O   0  0  0  0  0  0  0  0  0  0  0  0
    6.4490   -0.8050   20.9700 N   0  0  0  0  0  0  0  0  0  0  0  0
    5.8460   -0.1540   19.8620 C   0  0  0  0  0  0  0  0  0  0  0  0
    6.2580   -0.4580   18.5920 C   0  0  0  0  0  0  0  0  0  0  0  0
    5.7700    0.1140   17.4630 N   0  0  0  0  0  0  0  0  0  0  0  0
    4.8080    0.9960   17.6100 C   0  0  0  0  0  0  0  0  0  0  0  0
    4.2420    1.3670   18.8610 C   0  0  0  0  0  0  0  0  0  0  0  0
    3.1800    2.3110   18.9560 C   0  0  0  0  0  0  0  0  0  0  0  0
    2.6340    2.6260   20.1680 C   0  0  0  0  0  0  0  0  0  0  0  0
    3.1190    2.0040   21.3420 C   0  0  0  0  0  0  0  0  0  0  0  0
    4.1450    1.0980   21.2760 C   0  0  0  0  0  0  0  0  0  0  0  0
    4.7570    0.7670   20.0340 C   0  0  0  0  0  0  0  0  0  0  0  0
    4.5070    0.6300   22.1870 H   0  0  0  0  0  0  0  0  0  0  0  0
    2.6810    2.2600   22.3040 H   0  0  0  0  0  0  0  0  0  0  0  0
    1.8290    3.3570   20.2390 H   0  0  0  0  0  0  0  0  0  0  0  0
    2.8210    2.7780   18.0400 H   0  0  0  0  0  0  0  0  0  0  0  0
    4.4220    1.4570   16.7010 H   0  0  0  0  0  0  0  0  0  0  0  0
    7.0420   -1.1990   18.4340 H   0  0  0  0  0  0  0  0  0  0  0  0
    6.2070   -2.2030   21.2840 C   0  0  0  0  0  0  0  0  0  0  0  0
    7.1420   -2.4930   22.4700 C   0  0  2  0  0  0  0  0  0  0  0  0
    6.6020   -3.5800   23.4040 C   0  0  0  0  0  0  0  0  0  0  0  0
    5.6090   -3.3180   23.7910 H   0  0  0  0  0  0  0  0  0  0  0  0
    7.2580   -3.7290   24.2680 H   0  0  0  0  0  0  0  0  0  0  0  0
    6.5120   -4.5380   22.8800 H   0  0  0  0  0  0  0  0  0  0  0  0
    8.1090   -2.8300   22.0690 H   0  0  0  0  0  0  0  0  0  0  0  0
    6.4220   -2.8240   20.4130 H   0  0  0  0  0  0  0  0  0  0  0  0
    5.1540   -2.3760   21.5530 H   0  0  0  0  0  0  0  0  0  0  0  0
    8.8940   -0.9720   23.5380 C   0  0  0  0  0  0  0  0  0  0  0  0
    9.9040   -0.8000   22.5840 C   0  0  0  0  0  0  0  0  0  0  0  0
   11.2300   -0.7780   22.9810 C   0  0  0  0  0  0  0  0  0  0  0  0
   12.4800   -0.5270   21.8000 Cl  0  0  0  0  0  0  0  0  0  0  0  0
   11.5940   -0.9560   24.3160 C   0  0  0  0  0  0  0  0  0  0  0  0
   10.5980   -1.1610   25.2510 C   0  0  0  0  0  0  0  0  0  0  0  0
    9.2580   -1.1680   24.8710 C   0  0  0  0  0  0  0  0  0  0  0  0
    8.2260   -1.4960   25.9010 C   0  0  0  0  0  0  0  0  0  0  0  0
    8.5450   -1.9490   26.9890 O   0  0  0  0  0  0  0  0  0  0  0  0
   10.8320   -1.3470   26.2950 H   0  0  0  0  0  0  0  0  0  0  0  0
   12.6440   -0.9440   24.5920 H   0  0  0  0  0  0  0  0  0  0  0  0
    9.6570   -0.6680   21.5360 H   0  0  0  0  0  0  0  0  0  0  0  0
    6.5750    0.4040   24.3640 H   0  0  0  0  0  0  0  0  0  0  0  0
    5.5020   -1.0050   24.0830 H   0  0  0  0  0  0  0  0  0  0  0  0
    4.9960   -1.0620   26.2580 H   0  0  0  0  0  0  0  0  0  0  0  0
    6.2420   -1.0720   27.5290 H   0  0  0  0  0  0  0  0  0  0  0  0
    5.0810   -3.4870   26.0710 H   0  0  0  0  0  0  0  0  0  0  0  0
    6.6180   -3.5640   26.9680 H   0  0  0  0  0  0  0  0  0  0  0  0
    3.4790   -2.7750   28.1310 C   0  0  0  0  0  0  0  0  0  0  0  0
    2.6910   -3.1510   29.3940 C   0  0  2  0  0  0  0  0  0  0  0  0
    3.0530   -2.2870   30.6020 C   0  0  0  0  0  0  0  0  0  0  0  0
    4.1290   -2.3020   30.8160 H   0  0  0  0  0  0  0  0  0  0  0  0
    2.5170   -2.6400   31.4880 H   0  0  0  0  0  0  0  0  0  0  0  0
    2.7710   -1.2440   30.4120 H   0  0  0  0  0  0  0  0  0  0  0  0
    2.7850   -4.5450   29.6600 O   0  0  0  0  0  0  0  0  0  0  0  0
    1.6250   -3.0120   29.1750 H   0  0  0  0  0  0  0  0  0  0  0  0
    2.9920   -3.2450   27.2710 H   0  0  0  0  0  0  0  0  0  0  0  0
    3.4740   -1.6900   28.0080 H   0  0  0  0  0  0  0  0  0  0  0  0
    5.4410   -2.7630   28.9160 H   0  0  0  0  0  0  0  0  0  0  0  0
    5.9480   -5.0600   28.6340 H   0  0  0  0  0  0  0  0  0  0  0  0
    4.4650   -5.2920   27.6840 H   0  0  0  0  0  0  0  0  0  0  0  0
    4.6110   -4.4500   30.5910 H   0  0  0  0  0  0  0  0  0  0  0  0
    3.4180   -6.9740   29.2880 H   0  0  0  0  0  0  0  0  0  0  0  0
    5.0720   -6.9310   29.9470 H   0  0  0  0  0  0  0  0  0  0  0  0
    3.6610   -6.7170   31.0250 H   0  0  0  0  0  0  0  0  0  0  0  0
  1  2  1  0  0  0  0
  1 70  1  0  0  0  0
  1 71  1  0  0  0  0
  1 72  1  0  0  0  0
  2  3  1  0  0  0  0
  2 62  1  0  0  0  0
  2 69  1  1  0  0  0
  3  4  1  0  0  0  0
  3 67  1  0  0  0  0
  3 68  1  0  0  0  0
  4  5  1  0  0  0  0
  4 56  1  0  0  0  0
  4 66  1  1  0  0  0
  5  6  1  0  0  0  0
  5 54  1  0  0  0  0
  5 55  1  0  0  0  0
  6  7  1  0  0  0  0
  6 52  1  0  0  0  0
  6 53  1  0  0  0  0
  7  8  1  0  0  0  0
  7 45  1  0  0  0  0
  8  9  1  0  0  0  0
  8 50  1  0  0  0  0
  8 51  1  0  0  0  0
  9 10  1  6  0  0  0
  9 30  1  0  0  0  0
  9 38  1  0  0  0  0
 10 11  2  0  0  0  0
 10 12  1  0  0  0  0
 12 13  1  0  0  0  0
 12 29  1  0  0  0  0
 13 14  2  0  0  0  0
 13 22  1  0  0  0  0
 14 15  1  0  0  0  0
 14 28  1  0  0  0  0
 15 16  2  0  0  0  0
 16 17  1  0  0  0  0
 16 27  1  0  0  0  0
 17 18  2  0  0  0  0
 17 22  1  0  0  0  0
 18 19  1  0  0  0  0
 18 26  1  0  0  0  0
 19 20  2  0  0  0  0
 19 25  1  0  0  0  0
 20 21  1  0  0  0  0
 20 24  1  0  0  0  0
 21 22  2  0  0  0  0
 21 23  1  0  0  0  0
 29 30  1  0  0  0  0
 29 36  1  0  0  0  0
 29 37  1  0  0  0  0
 30 31  1  0  0  0  0
 30 35  1  6  0  0  0
 31 32  1  0  0  0  0
 31 33  1  0  0  0  0
 31 34  1  0  0  0  0
 38 39  2  0  0  0  0
 38 44  1  0  0  0  0
 39 40  1  0  0  0  0
 39 49  1  0  0  0  0
 40 41  1  0  0  0  0
 40 42  2  0  0  0  0
 42 43  1  0  0  0  0
 42 48  1  0  0  0  0
 43 44  2  0  0  0  0
 43 47  1  0  0  0  0
 44 45  1  0  0  0  0
 45 46  2  0  0  0  0
 56 57  1  0  0  0  0
 56 64  1  0  0  0  0
 56 65  1  0  0  0  0
 57 58  1  0  0  0  0
 57 62  1  0  0  0  0
 57 63  1  6  0  0  0
 58 59  1  0  0  0  0
 58 60  1  0  0  0  0
 58 61  1  0  0  0  0
M  CHG  1   4   1
M  END
>  <MODEL>
      11

$$$$
best_conformers_10.pdb
 OpenBabel02042510453D

 72 77  0  0  1  0  0  0  0  0999 V2000
    0.1650   -8.7300   23.6430 C   0  0  0  0  0  0  0  0  0  0  0  0
    1.0170   -8.1320   22.5510 C   0  0  1  0  0  0  0  0  0  0  0  0
    1.8860   -6.9970   23.0860 C   0  0  0  0  0  0  0  0  0  0  0  0
    2.7660   -6.5070   21.9860 N   0  3  1  0  0  0  0  0  0  0  0  0
    3.5200   -5.2520   22.3020 C   0  0  0  0  0  0  0  0  0  0  0  0
    4.7070   -5.4030   23.2540 C   0  0  0  0  0  0  0  0  0  0  0  0
    5.2160   -4.1100   23.6870 N   0  0  0  0  0  0  0  0  0  0  0  0
    6.5000   -3.6340   23.2070 C   0  0  0  0  0  0  0  0  0  0  0  0
    6.5300   -2.1110   22.9630 C   0  0  2  0  0  0  0  0  0  0  0  0
    5.6930   -1.7670   21.7240 C   0  0  0  0  0  0  0  0  0  0  0  0
    4.5870   -2.1950   21.4550 O   0  0  0  0  0  0  0  0  0  0  0  0
    6.3950   -0.8870   20.9460 N   0  0  0  0  0  0  0  0  0  0  0  0
    5.8060   -0.2100   19.8580 C   0  0  0  0  0  0  0  0  0  0  0  0
    6.2810   -0.4500   18.5940 C   0  0  0  0  0  0  0  0  0  0  0  0
    5.8010    0.1240   17.4650 N   0  0  0  0  0  0  0  0  0  0  0  0
    4.8160    0.9800   17.6100 C   0  0  0  0  0  0  0  0  0  0  0  0
    4.2540    1.3430   18.8690 C   0  0  0  0  0  0  0  0  0  0  0  0
    3.2100    2.3000   18.9560 C   0  0  0  0  0  0  0  0  0  0  0  0
    2.6950    2.6550   20.1710 C   0  0  0  0  0  0  0  0  0  0  0  0
    3.2000    2.0730   21.3570 C   0  0  0  0  0  0  0  0  0  0  0  0
    4.2090    1.1440   21.3080 C   0  0  0  0  0  0  0  0  0  0  0  0
    4.7550    0.7430   20.0460 C   0  0  0  0  0  0  0  0  0  0  0  0
    4.5950    0.7240   22.2400 H   0  0  0  0  0  0  0  0  0  0  0  0
    2.7890    2.3800   22.3150 H   0  0  0  0  0  0  0  0  0  0  0  0
    1.8990    3.3920   20.2360 H   0  0  0  0  0  0  0  0  0  0  0  0
    2.8430    2.7510   18.0390 H   0  0  0  0  0  0  0  0  0  0  0  0
    4.4250    1.4560   16.7100 H   0  0  0  0  0  0  0  0  0  0  0  0
    7.0780   -1.1810   18.4610 H   0  0  0  0  0  0  0  0  0  0  0  0
    7.7300   -0.5970   21.4140 C   0  0  0  0  0  0  0  0  0  0  0  0
    7.9510   -1.5780   22.5880 C   0  0  2  0  0  0  0  0  0  0  0  0
    8.9860   -2.6440   22.2060 C   0  0  0  0  0  0  0  0  0  0  0  0
    9.1940   -3.3250   23.0360 H   0  0  0  0  0  0  0  0  0  0  0  0
    8.6560   -3.2360   21.3470 H   0  0  0  0  0  0  0  0  0  0  0  0
    9.9350   -2.1690   21.9350 H   0  0  0  0  0  0  0  0  0  0  0  0
    8.3650   -1.0550   23.4550 H   0  0  0  0  0  0  0  0  0  0  0  0
    7.8110    0.4530   21.7230 H   0  0  0  0  0  0  0  0  0  0  0  0
    8.4570   -0.7470   20.6070 H   0  0  0  0  0  0  0  0  0  0  0  0
    5.9320   -1.4180   24.1830 C   0  0  0  0  0  0  0  0  0  0  0  0
    6.2270   -0.0820   24.4750 C   0  0  0  0  0  0  0  0  0  0  0  0
    5.6410    0.5320   25.5710 C   0  0  0  0  0  0  0  0  0  0  0  0
    6.0250    2.1980   25.9110 Cl  0  0  0  0  0  0  0  0  0  0  0  0
    4.7490   -0.1420   26.4040 C   0  0  0  0  0  0  0  0  0  0  0  0
    4.4330   -1.4500   26.1000 C   0  0  0  0  0  0  0  0  0  0  0  0
    5.0040   -2.0760   24.9940 C   0  0  0  0  0  0  0  0  0  0  0  0
    4.5500   -3.4710   24.6930 C   0  0  0  0  0  0  0  0  0  0  0  0
    3.6200   -3.9820   25.3010 O   0  0  0  0  0  0  0  0  0  0  0  0
    3.7290   -2.0200   26.6970 H   0  0  0  0  0  0  0  0  0  0  0  0
    4.3030    0.3700   27.2510 H   0  0  0  0  0  0  0  0  0  0  0  0
    6.9170    0.4890   23.8610 H   0  0  0  0  0  0  0  0  0  0  0  0
    7.2830   -3.8690   23.9370 H   0  0  0  0  0  0  0  0  0  0  0  0
    6.7360   -4.1530   22.2760 H   0  0  0  0  0  0  0  0  0  0  0  0
    4.4130   -5.9510   24.1510 H   0  0  0  0  0  0  0  0  0  0  0  0
    5.5270   -5.9420   22.7660 H   0  0  0  0  0  0  0  0  0  0  0  0
    2.7960   -4.5710   22.7450 H   0  0  0  0  0  0  0  0  0  0  0  0
    3.8540   -4.7890   21.3740 H   0  0  0  0  0  0  0  0  0  0  0  0
    3.5640   -7.6670   21.4450 C   0  0  0  0  0  0  0  0  0  0  0  0
    2.6530   -8.8070   20.9710 C   0  0  2  0  0  0  0  0  0  0  0  0
    1.8380   -8.5600   19.7040 C   0  0  0  0  0  0  0  0  0  0  0  0
    1.2620   -7.6290   19.7300 H   0  0  0  0  0  0  0  0  0  0  0  0
    2.4800   -8.5390   18.8220 H   0  0  0  0  0  0  0  0  0  0  0  0
    1.1360   -9.3950   19.5900 H   0  0  0  0  0  0  0  0  0  0  0  0
    1.8010   -9.2010   22.0400 O   0  0  0  0  0  0  0  0  0  0  0  0
    3.2750   -9.6900   20.7900 H   0  0  0  0  0  0  0  0  0  0  0  0
    4.1430   -8.0440   22.2760 H   0  0  0  0  0  0  0  0  0  0  0  0
    4.2460   -7.3170   20.6640 H   0  0  0  0  0  0  0  0  0  0  0  0
    2.1450   -6.2400   21.1970 H   0  0  0  0  0  0  0  0  0  0  0  0
    2.4780   -7.3550   23.9370 H   0  0  0  0  0  0  0  0  0  0  0  0
    1.2630   -6.1640   23.4220 H   0  0  0  0  0  0  0  0  0  0  0  0
    0.3990   -7.7160   21.7400 H   0  0  0  0  0  0  0  0  0  0  0  0
   -0.4400   -9.5470   23.2450 H   0  0  0  0  0  0  0  0  0  0  0  0
    0.8380   -9.1370   24.4050 H   0  0  0  0  0  0  0  0  0  0  0  0
   -0.4920   -7.9870   24.1060 H   0  0  0  0  0  0  0  0  0  0  0  0
  1  2  1  0  0  0  0
  1 70  1  0  0  0  0
  1 71  1  0  0  0  0
  1 72  1  0  0  0  0
  2  3  1  0  0  0  0
  2 62  1  0  0  0  0
  2 69  1  6  0  0  0
  3  4  1  0  0  0  0
  3 67  1  0  0  0  0
  3 68  1  0  0  0  0
  4  5  1  0  0  0  0
  4 56  1  0  0  0  0
  4 66  1  6  0  0  0
  5  6  1  0  0  0  0
  5 54  1  0  0  0  0
  5 55  1  0  0  0  0
  6  7  1  0  0  0  0
  6 52  1  0  0  0  0
  6 53  1  0  0  0  0
  7  8  1  0  0  0  0
  7 45  1  0  0  0  0
  8  9  1  0  0  0  0
  8 50  1  0  0  0  0
  8 51  1  0  0  0  0
  9 10  1  6  0  0  0
  9 30  1  0  0  0  0
  9 38  1  0  0  0  0
 10 11  2  0  0  0  0
 10 12  1  0  0  0  0
 12 13  1  0  0  0  0
 12 29  1  0  0  0  0
 13 14  2  0  0  0  0
 13 22  1  0  0  0  0
 14 15  1  0  0  0  0
 14 28  1  0  0  0  0
 15 16  2  0  0  0  0
 16 17  1  0  0  0  0
 16 27  1  0  0  0  0
 17 18  2  0  0  0  0
 17 22  1  0  0  0  0
 18 19  1  0  0  0  0
 18 26  1  0  0  0  0
 19 20  2  0  0  0  0
 19 25  1  0  0  0  0
 20 21  1  0  0  0  0
 20 24  1  0  0  0  0
 21 22  2  0  0  0  0
 21 23  1  0  0  0  0
 29 30  1  0  0  0  0
 29 36  1  0  0  0  0
 29 37  1  0  0  0  0
 30 31  1  0  0  0  0
 30 35  1  1  0  0  0
 31 32  1  0  0  0  0
 31 33  1  0  0  0  0
 31 34  1  0  0  0  0
 38 39  2  0  0  0  0
 38 44  1  0  0  0  0
 39 40  1  0  0  0  0
 39 49  1  0  0  0  0
 40 41  1  0  0  0  0
 40 42  2  0  0  0  0
 42 43  1  0  0  0  0
 42 48  1  0  0  0  0
 43 44  2  0  0  0  0
 43 47  1  0  0  0  0
 44 45  1  0  0  0  0
 45 46  2  0  0  0  0
 56 57  1  0  0  0  0
 56 64  1  0  0  0  0
 56 65  1  0  0  0  0
 57 58  1  0  0  0  0
 57 62  1  0  0  0  0
 57 63  1  6  0  0  0
 58 59  1  0  0  0  0
 58 60  1  0  0  0  0
 58 61  1  0  0  0  0
M  CHG  1   4   1
M  END
>  <MODEL>
      12

$$$$
best_conformers_10.pdb
 OpenBabel02042510453D

 72 77  0  0  1  0  0  0  0  0999 V2000
    1.3530   -0.4580   29.3580 C   0  0  0  0  0  0  0  0  0  0  0  0
    1.7860   -1.6430   28.4930 C   0  0  1  0  0  0  0  0  0  0  0  0
    2.9520   -1.3120   27.5520 C   0  0  0  0  0  0  0  0  0  0  0  0
    4.2760   -1.2640   28.2830 N   0  3  2  0  0  0  0  0  0  0  0  0
    5.4550   -0.9010   27.4200 C   0  0  0  0  0  0  0  0  0  0  0  0
    5.8990   -1.9830   26.4220 C   0  0  0  0  0  0  0  0  0  0  0  0
    6.9210   -1.5180   25.4910 N   0  0  0  0  0  0  0  0  0  0  0  0
    6.5260   -0.8030   24.2930 C   0  0  0  0  0  0  0  0  0  0  0  0
    7.4730   -1.0850   23.1010 C   0  0  2  0  0  0  0  0  0  0  0  0
    7.0980   -0.0980   21.9830 C   0  0  0  0  0  0  0  0  0  0  0  0
    7.2830    1.1040   21.9810 O   0  0  0  0  0  0  0  0  0  0  0  0
    6.4570   -0.7900   20.9780 N   0  0  0  0  0  0  0  0  0  0  0  0
    5.8480   -0.1520   19.8650 C   0  0  0  0  0  0  0  0  0  0  0  0
    6.2560   -0.4560   18.5910 C   0  0  0  0  0  0  0  0  0  0  0  0
    5.7660    0.1180   17.4640 N   0  0  0  0  0  0  0  0  0  0  0  0
    4.8050    0.9990   17.6070 C   0  0  0  0  0  0  0  0  0  0  0  0
    4.2380    1.3670   18.8590 C   0  0  0  0  0  0  0  0  0  0  0  0
    3.1770    2.3110   18.9540 C   0  0  0  0  0  0  0  0  0  0  0  0
    2.6280    2.6230   20.1660 C   0  0  0  0  0  0  0  0  0  0  0  0
    3.1120    1.9960   21.3400 C   0  0  0  0  0  0  0  0  0  0  0  0
    4.1390    1.0900   21.2710 C   0  0  0  0  0  0  0  0  0  0  0  0
    4.7540    0.7650   20.0290 C   0  0  0  0  0  0  0  0  0  0  0  0
    4.5000    0.6190   22.1800 H   0  0  0  0  0  0  0  0  0  0  0  0
    2.6740    2.2480   22.3030 H   0  0  0  0  0  0  0  0  0  0  0  0
    1.8230    3.3510   20.2400 H   0  0  0  0  0  0  0  0  0  0  0  0
    2.8170    2.7800   18.0390 H   0  0  0  0  0  0  0  0  0  0  0  0
    4.4190    1.4620   16.7000 H   0  0  0  0  0  0  0  0  0  0  0  0
    7.0410   -1.1940   18.4270 H   0  0  0  0  0  0  0  0  0  0  0  0
    6.2930   -2.2080   21.2550 C   0  0  0  0  0  0  0  0  0  0  0  0
    7.2580   -2.4830   22.4190 C   0  0  2  0  0  0  0  0  0  0  0  0
    6.7960   -3.6400   23.3140 C   0  0  0  0  0  0  0  0  0  0  0  0
    5.7980   -3.4470   23.7290 H   0  0  0  0  0  0  0  0  0  0  0  0
    6.7430   -4.5790   22.7500 H   0  0  0  0  0  0  0  0  0  0  0  0
    7.4750   -3.7850   24.1610 H   0  0  0  0  0  0  0  0  0  0  0  0
    8.2410   -2.7460   22.0040 H   0  0  0  0  0  0  0  0  0  0  0  0
    6.5320   -2.7870   20.3650 H   0  0  0  0  0  0  0  0  0  0  0  0
    5.2530   -2.4520   21.5240 H   0  0  0  0  0  0  0  0  0  0  0  0
    8.9040   -0.8990   23.5690 C   0  0  0  0  0  0  0  0  0  0  0  0
    9.9180   -0.6300   22.6440 C   0  0  0  0  0  0  0  0  0  0  0  0
   11.2300   -0.5220   23.0710 C   0  0  0  0  0  0  0  0  0  0  0  0
   12.4790   -0.1540   21.9210 Cl  0  0  0  0  0  0  0  0  0  0  0  0
   11.5800   -0.7040   24.4070 C   0  0  0  0  0  0  0  0  0  0  0  0
   10.5820   -1.0040   25.3150 C   0  0  0  0  0  0  0  0  0  0  0  0
    9.2530   -1.1030   24.9050 C   0  0  0  0  0  0  0  0  0  0  0  0
    8.2220   -1.5510   25.8950 C   0  0  0  0  0  0  0  0  0  0  0  0
    8.5380   -1.9690   26.9960 O   0  0  0  0  0  0  0  0  0  0  0  0
   10.8190   -1.1940   26.3550 H   0  0  0  0  0  0  0  0  0  0  0  0
   12.6220   -0.6210   24.7040 H   0  0  0  0  0  0  0  0  0  0  0  0
    9.6820   -0.4890   21.5960 H   0  0  0  0  0  0  0  0  0  0  0  0
    5.5010   -1.1090   24.0480 H   0  0  0  0  0  0  0  0  0  0  0  0
    6.5440    0.2860   24.4590 H   0  0  0  0  0  0  0  0  0  0  0  0
    6.3110   -2.8390   26.9630 H   0  0  0  0  0  0  0  0  0  0  0  0
    5.0360   -2.3220   25.8320 H   0  0  0  0  0  0  0  0  0  0  0  0
    6.2920   -0.6700   28.0860 H   0  0  0  0  0  0  0  0  0  0  0  0
    5.1770    0.0040   26.8710 H   0  0  0  0  0  0  0  0  0  0  0  0
    4.4550   -2.5320   29.0750 C   0  0  0  0  0  0  0  0  0  0  0  0
    3.2650   -2.7430   30.0090 C   0  0  2  0  0  0  0  0  0  0  0  0
    3.4060   -4.0390   30.7900 C   0  0  0  0  0  0  0  0  0  0  0  0
    2.5630   -4.1920   31.4720 H   0  0  0  0  0  0  0  0  0  0  0  0
    4.3280   -4.0140   31.3820 H   0  0  0  0  0  0  0  0  0  0  0  0
    3.4560   -4.8940   30.1040 H   0  0  0  0  0  0  0  0  0  0  0  0
    2.0540   -2.8120   29.2650 O   0  0  0  0  0  0  0  0  0  0  0  0
    3.2270   -1.8920   30.7120 H   0  0  0  0  0  0  0  0  0  0  0  0
    4.5120   -3.3820   28.3890 H   0  0  0  0  0  0  0  0  0  0  0  0
    5.3860   -2.4780   29.6510 H   0  0  0  0  0  0  0  0  0  0  0  0
    4.1940   -0.4910   28.9750 H   0  0  0  0  0  0  0  0  0  0  0  0
    3.0100   -2.0880   26.7870 H   0  0  0  0  0  0  0  0  0  0  0  0
    2.7730   -0.3470   27.0670 H   0  0  0  0  0  0  0  0  0  0  0  0
    0.9330   -1.9380   27.8720 H   0  0  0  0  0  0  0  0  0  0  0  0
    2.1740   -0.0660   29.9730 H   0  0  0  0  0  0  0  0  0  0  0  0
    0.9970    0.3630   28.7220 H   0  0  0  0  0  0  0  0  0  0  0  0
    0.5370   -0.7620   30.0240 H   0  0  0  0  0  0  0  0  0  0  0  0
  1  2  1  0  0  0  0
  1 70  1  0  0  0  0
  1 71  1  0  0  0  0
  1 72  1  0  0  0  0
  2  3  1  0  0  0  0
  2 62  1  0  0  0  0
  2 69  1  6  0  0  0
  3  4  1  0  0  0  0
  3 67  1  0  0  0  0
  3 68  1  0  0  0  0
  4  5  1  0  0  0  0
  4 56  1  0  0  0  0
  4 66  1  1  0  0  0
  5  6  1  0  0  0  0
  5 54  1  0  0  0  0
  5 55  1  0  0  0  0
  6  7  1  0  0  0  0
  6 52  1  0  0  0  0
  6 53  1  0  0  0  0
  7  8  1  0  0  0  0
  7 45  1  0  0  0  0
  8  9  1  0  0  0  0
  8 50  1  0  0  0  0
  8 51  1  0  0  0  0
  9 10  1  6  0  0  0
  9 30  1  0  0  0  0
  9 38  1  0  0  0  0
 10 11  2  0  0  0  0
 10 12  1  0  0  0  0
 12 13  1  0  0  0  0
 12 29  1  0  0  0  0
 13 14  2  0  0  0  0
 13 22  1  0  0  0  0
 14 15  1  0  0  0  0
 14 28  1  0  0  0  0
 15 16  2  0  0  0  0
 16 17  1  0  0  0  0
 16 27  1  0  0  0  0
 17 18  2  0  0  0  0
 17 22  1  0  0  0  0
 18 19  1  0  0  0  0
 18 26  1  0  0  0  0
 19 20  2  0  0  0  0
 19 25  1  0  0  0  0
 20 21  1  0  0  0  0
 20 24  1  0  0  0  0
 21 22  2  0  0  0  0
 21 23  1  0  0  0  0
 29 30  1  0  0  0  0
 29 36  1  0  0  0  0
 29 37  1  0  0  0  0
 30 31  1  0  0  0  0
 30 35  1  6  0  0  0
 31 32  1  0  0  0  0
 31 33  1  0  0  0  0
 31 34  1  0  0  0  0
 38 39  2  0  0  0  0
 38 44  1  0  0  0  0
 39 40  1  0  0  0  0
 39 49  1  0  0  0  0
 40 41  1  0  0  0  0
 40 42  2  0  0  0  0
 42 43  1  0  0  0  0
 42 48  1  0  0  0  0
 43 44  2  0  0  0  0
 43 47  1  0  0  0  0
 44 45  1  0  0  0  0
 45 46  2  0  0  0  0
 56 57  1  0  0  0  0
 56 64  1  0  0  0  0
 56 65  1  0  0  0  0
 57 58  1  0  0  0  0
 57 62  1  0  0  0  0
 57 63  1  1  0  0  0
 58 59  1  0  0  0  0
 58 60  1  0  0  0  0
 58 61  1  0  0  0  0
M  CHG  1   4   1
M  END
>  <MODEL>
      13

$$$$
best_conformers_10.pdb
 OpenBabel02042510453D

 72 77  0  0  1  0  0  0  0  0999 V2000
    5.3620   -1.9780   32.2140 C   0  0  0  0  0  0  0  0  0  0  0  0
    4.7430   -1.6570   30.8500 C   0  0  1  0  0  0  0  0  0  0  0  0
    5.7770   -1.8170   29.7210 C   0  0  0  0  0  0  0  0  0  0  0  0
    5.0810   -2.1540   28.4260 N   0  3  1  0  0  0  0  0  0  0  0  0
    5.9950   -2.1800   27.2480 C   0  0  0  0  0  0  0  0  0  0  0  0
    6.3580   -0.7850   26.7180 C   0  0  0  0  0  0  0  0  0  0  0  0
    7.2800   -0.8210   25.5730 N   0  0  0  0  0  0  0  0  0  0  0  0
    6.8370   -0.3090   24.2810 C   0  0  0  0  0  0  0  0  0  0  0  0
    7.5970   -0.9120   23.0690 C   0  0  2  0  0  0  0  0  0  0  0  0
    7.2630   -0.0350   21.8500 C   0  0  0  0  0  0  0  0  0  0  0  0
    7.5810    1.1230   21.6740 O   0  0  0  0  0  0  0  0  0  0  0  0
    6.4900   -0.7630   20.9730 N   0  0  0  0  0  0  0  0  0  0  0  0
    5.8610   -0.1380   19.8610 C   0  0  0  0  0  0  0  0  0  0  0  0
    6.2630   -0.4500   18.5860 C   0  0  0  0  0  0  0  0  0  0  0  0
    5.7590    0.1130   17.4600 N   0  0  0  0  0  0  0  0  0  0  0  0
    4.7980    0.9960   17.6020 C   0  0  0  0  0  0  0  0  0  0  0  0
    4.2410    1.3720   18.8580 C   0  0  0  0  0  0  0  0  0  0  0  0
    3.1810    2.3180   18.9550 C   0  0  0  0  0  0  0  0  0  0  0  0
    2.6490    2.6410   20.1760 C   0  0  0  0  0  0  0  0  0  0  0  0
    3.1470    2.0260   21.3490 C   0  0  0  0  0  0  0  0  0  0  0  0
    4.1750    1.1160   21.2760 C   0  0  0  0  0  0  0  0  0  0  0  0
    4.7700    0.7810   20.0250 C   0  0  0  0  0  0  0  0  0  0  0  0
    4.5470    0.6450   22.1800 H   0  0  0  0  0  0  0  0  0  0  0  0
    2.7220    2.2910   22.3140 H   0  0  0  0  0  0  0  0  0  0  0  0
    1.8470    3.3730   20.2530 H   0  0  0  0  0  0  0  0  0  0  0  0
    2.8120    2.7830   18.0450 H   0  0  0  0  0  0  0  0  0  0  0  0
    4.4140    1.4600   16.6960 H   0  0  0  0  0  0  0  0  0  0  0  0
    7.0450   -1.1900   18.4270 H   0  0  0  0  0  0  0  0  0  0  0  0
    6.1350   -2.0870   21.4550 C   0  0  0  0  0  0  0  0  0  0  0  0
    7.1110   -2.3360   22.6200 C   0  0  2  0  0  0  0  0  0  0  0  0
    6.5270   -3.2510   23.7040 C   0  0  0  0  0  0  0  0  0  0  0  0
    6.3130   -4.2510   23.3040 H   0  0  0  0  0  0  0  0  0  0  0  0
    5.5910   -2.8460   24.1090 H   0  0  0  0  0  0  0  0  0  0  0  0
    7.2200   -3.3650   24.5450 H   0  0  0  0  0  0  0  0  0  0  0  0
    8.0070   -2.8230   22.2120 H   0  0  0  0  0  0  0  0  0  0  0  0
    5.0900   -2.1320   21.8020 H   0  0  0  0  0  0  0  0  0  0  0  0
    6.2420   -2.8280   20.6570 H   0  0  0  0  0  0  0  0  0  0  0  0
    9.0850   -0.9070   23.3620 C   0  0  0  0  0  0  0  0  0  0  0  0
   10.0200   -0.9480   22.3230 C   0  0  0  0  0  0  0  0  0  0  0  0
   11.3710   -1.0210   22.6140 C   0  0  0  0  0  0  0  0  0  0  0  0
   12.5350   -1.0600   21.3270 Cl  0  0  0  0  0  0  0  0  0  0  0  0
   11.8400   -1.0830   23.9230 C   0  0  0  0  0  0  0  0  0  0  0  0
   10.9160   -1.0760   24.9480 C   0  0  0  0  0  0  0  0  0  0  0  0
    9.5520   -0.9800   24.6700 C   0  0  0  0  0  0  0  0  0  0  0  0
    8.6000   -1.0750   25.8130 C   0  0  0  0  0  0  0  0  0  0  0  0
    9.0100   -1.4060   26.9150 O   0  0  0  0  0  0  0  0  0  0  0  0
   11.2340   -1.1670   25.9790 H   0  0  0  0  0  0  0  0  0  0  0  0
   12.9080   -1.1460   24.1080 H   0  0  0  0  0  0  0  0  0  0  0  0
    9.6910   -0.9110   21.2910 H   0  0  0  0  0  0  0  0  0  0  0  0
    5.7670   -0.5330   24.1900 H   0  0  0  0  0  0  0  0  0  0  0  0
    6.9730    0.7820   24.2220 H   0  0  0  0  0  0  0  0  0  0  0  0
    6.7980   -0.1850   27.5260 H   0  0  0  0  0  0  0  0  0  0  0  0
    5.4440   -0.2820   26.3870 H   0  0  0  0  0  0  0  0  0  0  0  0
    5.5010   -2.7540   26.4550 H   0  0  0  0  0  0  0  0  0  0  0  0
    6.9090   -2.7090   27.5320 H   0  0  0  0  0  0  0  0  0  0  0  0
    4.3470   -3.4700   28.5760 C   0  0  0  0  0  0  0  0  0  0  0  0
    3.8300   -3.6740   30.0070 C   0  0  2  0  0  0  0  0  0  0  0  0
    2.5530   -4.5000   30.0220 C   0  0  0  0  0  0  0  0  0  0  0  0
    2.2100   -4.6930   31.0460 H   0  0  0  0  0  0  0  0  0  0  0  0
    2.7240   -5.4660   29.5300 H   0  0  0  0  0  0  0  0  0  0  0  0
    1.7570   -3.9720   29.4830 H   0  0  0  0  0  0  0  0  0  0  0  0
    3.5610   -2.4150   30.5980 O   0  0  0  0  0  0  0  0  0  0  0  0
    4.6030   -4.2090   30.5830 H   0  0  0  0  0  0  0  0  0  0  0  0
    3.5140   -3.4820   27.8680 H   0  0  0  0  0  0  0  0  0  0  0  0
    5.0280   -4.2870   28.3150 H   0  0  0  0  0  0  0  0  0  0  0  0
    4.3490   -1.4320   28.2690 H   0  0  0  0  0  0  0  0  0  0  0  0
    6.3410   -0.8880   29.6080 H   0  0  0  0  0  0  0  0  0  0  0  0
    6.4970   -2.6150   29.9540 H   0  0  0  0  0  0  0  0  0  0  0  0
    4.3800   -0.6230   30.8600 H   0  0  0  0  0  0  0  0  0  0  0  0
    6.2210   -1.3200   32.4070 H   0  0  0  0  0  0  0  0  0  0  0  0
    5.7240   -3.0150   32.2600 H   0  0  0  0  0  0  0  0  0  0  0  0
    4.6290   -1.8330   33.0150 H   0  0  0  0  0  0  0  0  0  0  0  0
  1  2  1  0  0  0  0
  1 70  1  0  0  0  0
  1 71  1  0  0  0  0
  1 72  1  0  0  0  0
  2  3  1  0  0  0  0
  2 62  1  0  0  0  0
  2 69  1  1  0  0  0
  3  4  1  0  0  0  0
  3 67  1  0  0  0  0
  3 68  1  0  0  0  0
  4  5  1  0  0  0  0
  4 56  1  0  0  0  0
  4 66  1  6  0  0  0
  5  6  1  0  0  0  0
  5 54  1  0  0  0  0
  5 55  1  0  0  0  0
  6  7  1  0  0  0  0
  6 52  1  0  0  0  0
  6 53  1  0  0  0  0
  7  8  1  0  0  0  0
  7 45  1  0  0  0  0
  8  9  1  0  0  0  0
  8 50  1  0  0  0  0
  8 51  1  0  0  0  0
  9 10  1  6  0  0  0
  9 30  1  0  0  0  0
  9 38  1  0  0  0  0
 10 11  2  0  0  0  0
 10 12  1  0  0  0  0
 12 13  1  0  0  0  0
 12 29  1  0  0  0  0
 13 14  2  0  0  0  0
 13 22  1  0  0  0  0
 14 15  1  0  0  0  0
 14 28  1  0  0  0  0
 15 16  2  0  0  0  0
 16 17  1  0  0  0  0
 16 27  1  0  0  0  0
 17 18  2  0  0  0  0
 17 22  1  0  0  0  0
 18 19  1  0  0  0  0
 18 26  1  0  0  0  0
 19 20  2  0  0  0  0
 19 25  1  0  0  0  0
 20 21  1  0  0  0  0
 20 24  1  0  0  0  0
 21 22  2  0  0  0  0
 21 23  1  0  0  0  0
 29 30  1  0  0  0  0
 29 36  1  0  0  0  0
 29 37  1  0  0  0  0
 30 31  1  0  0  0  0
 30 35  1  6  0  0  0
 31 32  1  0  0  0  0
 31 33  1  0  0  0  0
 31 34  1  0  0  0  0
 38 39  2  0  0  0  0
 38 44  1  0  0  0  0
 39 40  1  0  0  0  0
 39 49  1  0  0  0  0
 40 41  1  0  0  0  0
 40 42  2  0  0  0  0
 42 43  1  0  0  0  0
 42 48  1  0  0  0  0
 43 44  2  0  0  0  0
 43 47  1  0  0  0  0
 44 45  1  0  0  0  0
 45 46  2  0  0  0  0
 56 57  1  0  0  0  0
 56 64  1  0  0  0  0
 56 65  1  0  0  0  0
 57 58  1  0  0  0  0
 57 62  1  0  0  0  0
 57 63  1  1  0  0  0
 58 59  1  0  0  0  0
 58 60  1  0  0  0  0
 58 61  1  0  0  0  0
M  CHG  1   4   1
M  END
>  <MODEL>
      14

$$$$
