best_conformers_67.pdb
 OpenBabel02042510453D

 69 74  0  0  1  0  0  0  0  0999 V2000
    7.6280    3.7020   23.9310 C   0  0  0  0  0  0  0  0  0  0  0  0
    6.7030    3.3210   25.0250 N   0  3  0  0  0  0  0  0  0  0  0  0
    5.5700    2.4250   24.6200 C   0  0  0  0  0  0  0  0  0  0  0  0
    5.6090    1.1200   25.4250 C   0  0  0  0  0  0  0  0  0  0  0  0
    6.7360    0.2810   25.0190 N   0  0  0  0  0  0  0  0  0  0  0  0
    6.5100   -0.9190   24.2240 C   0  0  0  0  0  0  0  0  0  0  0  0
    7.4840   -1.0480   23.0200 C   0  0  2  0  0  0  0  0  0  0  0  0
    7.0540   -0.0880   21.9000 C   0  0  0  0  0  0  0  0  0  0  0  0
    7.2320    1.1160   21.8490 O   0  0  0  0  0  0  0  0  0  0  0  0
    6.4070   -0.8130   20.9280 N   0  0  0  0  0  0  0  0  0  0  0  0
    5.8200   -0.1910   19.8110 C   0  0  0  0  0  0  0  0  0  0  0  0
    6.2720   -0.4760   18.5470 C   0  0  0  0  0  0  0  0  0  0  0  0
    5.8000    0.1100   17.4200 N   0  0  0  0  0  0  0  0  0  0  0  0
    4.8300    0.9850   17.5690 C   0  0  0  0  0  0  0  0  0  0  0  0
    4.2600    1.3520   18.8210 C   0  0  0  0  0  0  0  0  0  0  0  0
    3.2150    2.3090   18.9270 C   0  0  0  0  0  0  0  0  0  0  0  0
    2.6780    2.6210   20.1450 C   0  0  0  0  0  0  0  0  0  0  0  0
    3.1530    1.9930   21.3190 C   0  0  0  0  0  0  0  0  0  0  0  0
    4.1620    1.0660   21.2430 C   0  0  0  0  0  0  0  0  0  0  0  0
    4.7550    0.7400   19.9880 C   0  0  0  0  0  0  0  0  0  0  0  0
    4.5210    0.5860   22.1460 H   0  0  0  0  0  0  0  0  0  0  0  0
    2.7240    2.2510   22.2810 H   0  0  0  0  0  0  0  0  0  0  0  0
    1.8810    3.3550   20.2180 H   0  0  0  0  0  0  0  0  0  0  0  0
    2.8580    2.7850   18.0180 H   0  0  0  0  0  0  0  0  0  0  0  0
    4.4460    1.4490   16.6620 H   0  0  0  0  0  0  0  0  0  0  0  0
    7.0790   -1.1950   18.4200 H   0  0  0  0  0  0  0  0  0  0  0  0
    6.2160   -2.2060   21.2810 C   0  0  0  0  0  0  0  0  0  0  0  0
    7.3180   -2.4320   22.3220 C   0  0  2  0  0  0  0  0  0  0  0  0
    7.0440   -3.6250   23.2380 C   0  0  0  0  0  0  0  0  0  0  0  0
    7.9440   -3.6890   24.3250 O   0  0  0  0  0  0  0  0  0  0  0  0
    9.1750   -4.3090   24.0220 C   0  0  0  0  0  0  0  0  0  0  0  0
   10.0510   -4.2510   25.2420 C   0  0  0  0  0  0  0  0  0  0  0  0
   10.6440   -3.0260   25.4450 F   0  0  0  0  0  0  0  0  0  0  0  0
    9.5990   -4.9810   26.4490 C   0  0  0  0  0  0  0  0  0  0  0  0
   10.8180   -5.4390   25.6930 C   0  0  0  0  0  0  0  0  0  0  0  0
   11.7910   -5.2760   26.1430 H   0  0  0  0  0  0  0  0  0  0  0  0
   10.7190   -6.3440   25.1110 H   0  0  0  0  0  0  0  0  0  0  0  0
    8.6890   -5.5460   26.2880 H   0  0  0  0  0  0  0  0  0  0  0  0
    9.7230   -4.5210   27.4240 H   0  0  0  0  0  0  0  0  0  0  0  0
    8.9980   -5.3630   23.7570 H   0  0  0  0  0  0  0  0  0  0  0  0
    9.6800   -3.8260   23.1730 H   0  0  0  0  0  0  0  0  0  0  0  0
    6.0450   -3.5240   23.6790 H   0  0  0  0  0  0  0  0  0  0  0  0
    7.0590   -4.5720   22.6730 H   0  0  0  0  0  0  0  0  0  0  0  0
    8.2510   -2.6260   21.7870 H   0  0  0  0  0  0  0  0  0  0  0  0
    6.3050   -2.8380   20.3950 H   0  0  0  0  0  0  0  0  0  0  0  0
    5.2190   -2.3790   21.7220 H   0  0  0  0  0  0  0  0  0  0  0  0
    8.8870   -0.7450   23.4870 C   0  0  0  0  0  0  0  0  0  0  0  0
    9.9970   -0.9830   22.6670 C   0  0  0  0  0  0  0  0  0  0  0  0
   11.2730   -0.8160   23.1720 C   0  0  0  0  0  0  0  0  0  0  0  0
   12.6640   -1.1860   22.2030 Cl  0  0  0  0  0  0  0  0  0  0  0  0
   11.4780   -0.4390   24.4990 C   0  0  0  0  0  0  0  0  0  0  0  0
   10.3820   -0.1340   25.2720 C   0  0  0  0  0  0  0  0  0  0  0  0
    9.1010   -0.1380   24.7280 C   0  0  0  0  0  0  0  0  0  0  0  0
    7.9910    0.5940   25.4210 C   0  0  0  0  0  0  0  0  0  0  0  0
    8.2120    1.4880   26.2510 O   0  0  0  0  0  0  0  0  0  0  0  0
   10.5070    0.0760   26.3230 H   0  0  0  0  0  0  0  0  0  0  0  0
   12.4780   -0.4500   24.9090 H   0  0  0  0  0  0  0  0  0  0  0  0
    9.8890   -1.3180   21.6400 H   0  0  0  0  0  0  0  0  0  0  0  0
    5.4820   -0.9020   23.8490 H   0  0  0  0  0  0  0  0  0  0  0  0
    6.6480   -1.8010   24.8600 H   0  0  0  0  0  0  0  0  0  0  0  0
    5.6750    1.3220   26.5020 H   0  0  0  0  0  0  0  0  0  0  0  0
    4.6960    0.5480   25.2730 H   0  0  0  0  0  0  0  0  0  0  0  0
    4.6120    2.9390   24.7570 H   0  0  0  0  0  0  0  0  0  0  0  0
    5.6590    2.1860   23.5550 H   0  0  0  0  0  0  0  0  0  0  0  0
    7.2740    2.8130   25.7380 H   0  0  0  0  0  0  0  0  0  0  0  0
    6.3250    4.1760   25.4770 H   0  0  0  0  0  0  0  0  0  0  0  0
    8.2090    4.5830   24.2110 H   0  0  0  0  0  0  0  0  0  0  0  0
    8.3200    2.8740   23.7490 H   0  0  0  0  0  0  0  0  0  0  0  0
    7.0920    3.9120   22.9990 H   0  0  0  0  0  0  0  0  0  0  0  0
  1  2  1  0  0  0  0
  1 67  1  0  0  0  0
  1 68  1  0  0  0  0
  1 69  1  0  0  0  0
  2  3  1  0  0  0  0
  2 65  1  0  0  0  0
  2 66  1  0  0  0  0
  3  4  1  0  0  0  0
  3 63  1  0  0  0  0
  3 64  1  0  0  0  0
  4  5  1  0  0  0  0
  4 61  1  0  0  0  0
  4 62  1  0  0  0  0
  5  6  1  0  0  0  0
  5 54  1  0  0  0  0
  6  7  1  0  0  0  0
  6 59  1  0  0  0  0
  6 60  1  0  0  0  0
  7  8  1  6  0  0  0
  7 28  1  0  0  0  0
  7 47  1  0  0  0  0
  8  9  2  0  0  0  0
  8 10  1  0  0  0  0
 10 11  1  0  0  0  0
 10 27  1  0  0  0  0
 11 12  2  0  0  0  0
 11 20  1  0  0  0  0
 12 13  1  0  0  0  0
 12 26  1  0  0  0  0
 13 14  2  0  0  0  0
 14 15  1  0  0  0  0
 14 25  1  0  0  0  0
 15 16  2  0  0  0  0
 15 20  1  0  0  0  0
 16 17  1  0  0  0  0
 16 24  1  0  0  0  0
 17 18  2  0  0  0  0
 17 23  1  0  0  0  0
 18 19  1  0  0  0  0
 18 22  1  0  0  0  0
 19 20  2  0  0  0  0
 19 21  1  0  0  0  0
 27 28  1  0  0  0  0
 27 45  1  0  0  0  0
 27 46  1  0  0  0  0
 28 29  1  0  0  0  0
 28 44  1  6  0  0  0
 29 30  1  0  0  0  0
 29 42  1  0  0  0  0
 29 43  1  0  0  0  0
 30 31  1  0  0  0  0
 31 32  1  0  0  0  0
 31 40  1  0  0  0  0
 31 41  1  0  0  0  0
 32 33  1  0  0  0  0
 32 34  1  0  0  0  0
 32 35  1  0  0  0  0
 34 35  1  0  0  0  0
 34 38  1  0  0  0  0
 34 39  1  0  0  0  0
 35 36  1  0  0  0  0
 35 37  1  0  0  0  0
 47 48  2  0  0  0  0
 47 53  1  0  0  0  0
 48 49  1  0  0  0  0
 48 58  1  0  0  0  0
 49 50  1  0  0  0  0
 49 51  2  0  0  0  0
 51 52  1  0  0  0  0
 51 57  1  0  0  0  0
 52 53  2  0  0  0  0
 52 56  1  0  0  0  0
 53 54  1  0  0  0  0
 54 55  2  0  0  0  0
M  CHG  1   2   1
M  END
>  <MODEL>
       1

$$$$
