best_conformers_17.pdb
 OpenBabel02042510453D

 58 63  0  0  1  0  0  0  0  0999 V2000
    8.9880   -2.6910   22.1710 C   0  0  0  0  0  0  0  0  0  0  0  0
    7.9640   -1.6170   22.5830 C   0  0  1  0  0  0  0  0  0  0  0  0
    7.7380   -0.6130   21.4230 C   0  0  0  0  0  0  0  0  0  0  0  0
    6.3900   -0.8810   20.9590 N   0  0  0  0  0  0  0  0  0  0  0  0
    5.7990   -0.2120   19.8550 C   0  0  0  0  0  0  0  0  0  0  0  0
    6.2570   -0.4620   18.5850 C   0  0  0  0  0  0  0  0  0  0  0  0
    5.7860    0.1320   17.4620 N   0  0  0  0  0  0  0  0  0  0  0  0
    4.8100    0.9990   17.6100 C   0  0  0  0  0  0  0  0  0  0  0  0
    4.2390    1.3590   18.8650 C   0  0  0  0  0  0  0  0  0  0  0  0
    3.1910    2.3200   18.9570 C   0  0  0  0  0  0  0  0  0  0  0  0
    2.6760    2.6680   20.1770 C   0  0  0  0  0  0  0  0  0  0  0  0
    3.1970    2.0830   21.3550 C   0  0  0  0  0  0  0  0  0  0  0  0
    4.2100    1.1570   21.2920 C   0  0  0  0  0  0  0  0  0  0  0  0
    4.7470    0.7500   20.0320 C   0  0  0  0  0  0  0  0  0  0  0  0
    4.5970    0.7180   22.2100 H   0  0  0  0  0  0  0  0  0  0  0  0
    2.7820    2.3680   22.3190 H   0  0  0  0  0  0  0  0  0  0  0  0
    1.8740    3.3990   20.2470 H   0  0  0  0  0  0  0  0  0  0  0  0
    2.8190    2.7720   18.0410 H   0  0  0  0  0  0  0  0  0  0  0  0
    4.4180    1.4560   16.7030 H   0  0  0  0  0  0  0  0  0  0  0  0
    7.0520   -1.1890   18.4310 H   0  0  0  0  0  0  0  0  0  0  0  0
    5.6770   -1.7530   21.7480 C   0  0  0  0  0  0  0  0  0  0  0  0
    4.5470   -2.1320   21.5080 O   0  0  0  0  0  0  0  0  0  0  0  0
    6.5350   -2.1360   22.9710 C   0  0  1  0  0  0  0  0  0  0  0  0
    6.4770   -3.6610   23.2030 C   0  0  0  0  0  0  0  0  0  0  0  0
    5.1700   -4.1030   23.6540 N   0  0  0  0  0  0  0  0  0  0  0  0
    4.5710   -5.2470   22.9860 C   0  0  0  0  0  0  0  0  0  0  0  0
    5.3980   -6.4960   23.0960 C   0  0  0  0  0  0  0  0  0  0  0  0
    6.1230   -7.0160   22.1380 N   0  0  0  0  0  0  0  0  0  0  0  0
    6.7860   -8.1040   22.6540 N   0  0  0  0  0  0  0  0  0  0  0  0
    6.4300   -8.2020   23.9020 C   0  0  0  0  0  0  0  0  0  0  0  0
    5.5520   -7.2160   24.2470 N   0  0  0  0  0  0  0  0  0  0  0  0
    4.9690   -6.9560   25.5520 C   0  0  0  0  0  0  0  0  0  0  0  0
    5.1330   -7.8410   26.1730 H   0  0  0  0  0  0  0  0  0  0  0  0
    3.8930   -6.7710   25.4620 H   0  0  0  0  0  0  0  0  0  0  0  0
    5.4400   -6.0850   26.0200 H   0  0  0  0  0  0  0  0  0  0  0  0
    6.7520   -8.9590   24.6010 H   0  0  0  0  0  0  0  0  0  0  0  0
    4.4700   -5.0190   21.9180 H   0  0  0  0  0  0  0  0  0  0  0  0
    3.5770   -5.3660   23.4260 H   0  0  0  0  0  0  0  0  0  0  0  0
    4.5240   -3.4890   24.6880 C   0  0  0  0  0  0  0  0  0  0  0  0
    3.5900   -4.0070   25.2890 O   0  0  0  0  0  0  0  0  0  0  0  0
    5.0240   -2.1170   25.0260 C   0  0  0  0  0  0  0  0  0  0  0  0
    4.4690   -1.4870   26.1410 C   0  0  0  0  0  0  0  0  0  0  0  0
    4.8070   -0.1840   26.4480 C   0  0  0  0  0  0  0  0  0  0  0  0
    5.6960    0.4760   25.6120 C   0  0  0  0  0  0  0  0  0  0  0  0
    6.0070    1.7540   25.8940 F   0  0  0  0  0  0  0  0  0  0  0  0
    6.2680   -0.1240   24.5080 C   0  0  0  0  0  0  0  0  0  0  0  0
    5.9580   -1.4580   24.2140 C   0  0  0  0  0  0  0  0  0  0  0  0
    6.9370    0.4750   23.8980 H   0  0  0  0  0  0  0  0  0  0  0  0
    4.3910    0.3410   27.2990 H   0  0  0  0  0  0  0  0  0  0  0  0
    3.7550   -2.0510   26.7290 H   0  0  0  0  0  0  0  0  0  0  0  0
    6.6700   -4.1830   22.2660 H   0  0  0  0  0  0  0  0  0  0  0  0
    7.2380   -3.9420   23.9470 H   0  0  0  0  0  0  0  0  0  0  0  0
    8.4580   -0.7660   20.6090 H   0  0  0  0  0  0  0  0  0  0  0  0
    7.8440    0.4340   21.7470 H   0  0  0  0  0  0  0  0  0  0  0  0
    8.3920   -1.1030   23.4530 H   0  0  0  0  0  0  0  0  0  0  0  0
    8.6440   -3.2700   21.3070 H   0  0  0  0  0  0  0  0  0  0  0  0
    9.1940   -3.3950   22.9840 H   0  0  0  0  0  0  0  0  0  0  0  0
    9.9400   -2.2200   21.8990 H   0  0  0  0  0  0  0  0  0  0  0  0
  1  2  1  0  0  0  0
  1 56  1  0  0  0  0
  1 57  1  0  0  0  0
  1 58  1  0  0  0  0
  2  3  1  0  0  0  0
  2 23  1  0  0  0  0
  2 55  1  1  0  0  0
  3  4  1  0  0  0  0
  3 53  1  0  0  0  0
  3 54  1  0  0  0  0
  4  5  1  0  0  0  0
  4 21  1  0  0  0  0
  5  6  2  0  0  0  0
  5 14  1  0  0  0  0
  6  7  1  0  0  0  0
  6 20  1  0  0  0  0
  7  8  2  0  0  0  0
  8  9  1  0  0  0  0
  8 19  1  0  0  0  0
  9 10  2  0  0  0  0
  9 14  1  0  0  0  0
 10 11  1  0  0  0  0
 10 18  1  0  0  0  0
 11 12  2  0  0  0  0
 11 17  1  0  0  0  0
 12 13  1  0  0  0  0
 12 16  1  0  0  0  0
 13 14  2  0  0  0  0
 13 15  1  0  0  0  0
 21 22  2  0  0  0  0
 23 21  1  6  0  0  0
 23 24  1  0  0  0  0
 23 47  1  0  0  0  0
 24 25  1  0  0  0  0
 24 51  1  0  0  0  0
 24 52  1  0  0  0  0
 25 26  1  0  0  0  0
 25 39  1  0  0  0  0
 26 27  1  0  0  0  0
 26 37  1  0  0  0  0
 26 38  1  0  0  0  0
 27 28  2  0  0  0  0
 27 31  1  0  0  0  0
 28 29  1  0  0  0  0
 29 30  2  0  0  0  0
 30 31  1  0  0  0  0
 30 36  1  0  0  0  0
 31 32  1  0  0  0  0
 32 33  1  0  0  0  0
 32 34  1  0  0  0  0
 32 35  1  0  0  0  0
 39 40  2  0  0  0  0
 39 41  1  0  0  0  0
 41 42  2  0  0  0  0
 41 47  1  0  0  0  0
 42 43  1  0  0  0  0
 42 50  1  0  0  0  0
 43 44  2  0  0  0  0
 43 49  1  0  0  0  0
 44 45  1  0  0  0  0
 44 46  1  0  0  0  0
 46 47  2  0  0  0  0
 46 48  1  0  0  0  0
M  END
>  <MODEL>
       1

$$$$
best_conformers_17.pdb
 OpenBabel02042510453D

 58 63  0  0  1  0  0  0  0  0999 V2000
    8.9960   -2.6990   22.1680 C   0  0  0  0  0  0  0  0  0  0  0  0
    7.9810   -1.6170   22.5760 C   0  0  1  0  0  0  0  0  0  0  0  0
    7.7520   -0.6210   21.4090 C   0  0  0  0  0  0  0  0  0  0  0  0
    6.3960   -0.8730   20.9590 N   0  0  0  0  0  0  0  0  0  0  0  0
    5.8020   -0.2070   19.8550 C   0  0  0  0  0  0  0  0  0  0  0  0
    6.2560   -0.4590   18.5850 C   0  0  0  0  0  0  0  0  0  0  0  0
    5.7810    0.1320   17.4590 N   0  0  0  0  0  0  0  0  0  0  0  0
    4.8070    1.0000   17.6070 C   0  0  0  0  0  0  0  0  0  0  0  0
    4.2380    1.3630   18.8610 C   0  0  0  0  0  0  0  0  0  0  0  0
    3.1910    2.3220   18.9570 C   0  0  0  0  0  0  0  0  0  0  0  0
    2.6770    2.6700   20.1750 C   0  0  0  0  0  0  0  0  0  0  0  0
    3.1990    2.0850   21.3540 C   0  0  0  0  0  0  0  0  0  0  0  0
    4.2120    1.1610   21.2890 C   0  0  0  0  0  0  0  0  0  0  0  0
    4.7500    0.7550   20.0320 C   0  0  0  0  0  0  0  0  0  0  0  0
    4.6010    0.7220   22.2070 H   0  0  0  0  0  0  0  0  0  0  0  0
    2.7860    2.3700   22.3170 H   0  0  0  0  0  0  0  0  0  0  0  0
    1.8760    3.4010   20.2470 H   0  0  0  0  0  0  0  0  0  0  0  0
    2.8160    2.7750   18.0400 H   0  0  0  0  0  0  0  0  0  0  0  0
    4.4150    1.4610   16.6990 H   0  0  0  0  0  0  0  0  0  0  0  0
    7.0480   -1.1890   18.4290 H   0  0  0  0  0  0  0  0  0  0  0  0
    5.6850   -1.7400   21.7570 C   0  0  0  0  0  0  0  0  0  0  0  0
    4.5530   -2.1140   21.5310 O   0  0  0  0  0  0  0  0  0  0  0  0
    6.5540   -2.1300   22.9740 C   0  0  1  0  0  0  0  0  0  0  0  0
    6.4810   -3.6580   23.1960 C   0  0  0  0  0  0  0  0  0  0  0  0
    5.1590   -4.0640   23.6290 N   0  0  0  0  0  0  0  0  0  0  0  0
    4.5490   -5.2550   23.0880 C   0  0  0  0  0  0  0  0  0  0  0  0
    4.8770   -6.5060   23.8640 C   0  0  0  0  0  0  0  0  0  0  0  0
    6.0910   -6.9540   24.0780 N   0  0  0  0  0  0  0  0  0  0  0  0
    5.9880   -8.1240   24.7910 N   0  0  0  0  0  0  0  0  0  0  0  0
    4.7150   -8.3450   24.9770 C   0  0  0  0  0  0  0  0  0  0  0  0
    3.9580   -7.3670   24.4010 N   0  0  0  0  0  0  0  0  0  0  0  0
    2.5090   -7.2770   24.3630 C   0  0  0  0  0  0  0  0  0  0  0  0
    2.1380   -7.3310   23.3320 H   0  0  0  0  0  0  0  0  0  0  0  0
    2.1850   -6.3420   24.8300 H   0  0  0  0  0  0  0  0  0  0  0  0
    2.1050   -8.1300   24.9180 H   0  0  0  0  0  0  0  0  0  0  0  0
    4.2990   -9.1760   25.5340 H   0  0  0  0  0  0  0  0  0  0  0  0
    3.4660   -5.0970   23.0280 H   0  0  0  0  0  0  0  0  0  0  0  0
    4.9290   -5.3530   22.0650 H   0  0  0  0  0  0  0  0  0  0  0  0
    4.5640   -3.4880   24.7110 C   0  0  0  0  0  0  0  0  0  0  0  0
    3.6670   -4.0590   25.3220 O   0  0  0  0  0  0  0  0  0  0  0  0
    5.0600   -2.1140   25.0530 C   0  0  0  0  0  0  0  0  0  0  0  0
    4.5250   -1.4760   26.1730 C   0  0  0  0  0  0  0  0  0  0  0  0
    4.8590   -0.1680   26.4650 C   0  0  0  0  0  0  0  0  0  0  0  0
    5.7290    0.4940   25.6090 C   0  0  0  0  0  0  0  0  0  0  0  0
    6.0360    1.7750   25.8750 F   0  0  0  0  0  0  0  0  0  0  0  0
    6.2860   -0.1130   24.5010 C   0  0  0  0  0  0  0  0  0  0  0  0
    5.9830   -1.4530   24.2230 C   0  0  0  0  0  0  0  0  0  0  0  0
    6.9380    0.4850   23.8720 H   0  0  0  0  0  0  0  0  0  0  0  0
    4.4540    0.3610   27.3190 H   0  0  0  0  0  0  0  0  0  0  0  0
    3.8230   -2.0330   26.7860 H   0  0  0  0  0  0  0  0  0  0  0  0
    7.2280   -3.9530   23.9490 H   0  0  0  0  0  0  0  0  0  0  0  0
    6.6960   -4.1840   22.2650 H   0  0  0  0  0  0  0  0  0  0  0  0
    7.8720    0.4270   21.7260 H   0  0  0  0  0  0  0  0  0  0  0  0
    8.4620   -0.7880   20.5900 H   0  0  0  0  0  0  0  0  0  0  0  0
    8.4150   -1.0990   23.4390 H   0  0  0  0  0  0  0  0  0  0  0  0
    9.9480   -2.2330   21.8900 H   0  0  0  0  0  0  0  0  0  0  0  0
    9.2020   -3.3960   22.9860 H   0  0  0  0  0  0  0  0  0  0  0  0
    8.6470   -3.2800   21.3100 H   0  0  0  0  0  0  0  0  0  0  0  0
  1  2  1  0  0  0  0
  1 56  1  0  0  0  0
  1 57  1  0  0  0  0
  1 58  1  0  0  0  0
  2  3  1  0  0  0  0
  2 23  1  0  0  0  0
  2 55  1  1  0  0  0
  3  4  1  0  0  0  0
  3 53  1  0  0  0  0
  3 54  1  0  0  0  0
  4  5  1  0  0  0  0
  4 21  1  0  0  0  0
  5  6  2  0  0  0  0
  5 14  1  0  0  0  0
  6  7  1  0  0  0  0
  6 20  1  0  0  0  0
  7  8  2  0  0  0  0
  8  9  1  0  0  0  0
  8 19  1  0  0  0  0
  9 10  2  0  0  0  0
  9 14  1  0  0  0  0
 10 11  1  0  0  0  0
 10 18  1  0  0  0  0
 11 12  2  0  0  0  0
 11 17  1  0  0  0  0
 12 13  1  0  0  0  0
 12 16  1  0  0  0  0
 13 14  2  0  0  0  0
 13 15  1  0  0  0  0
 21 22  2  0  0  0  0
 23 21  1  6  0  0  0
 23 24  1  0  0  0  0
 23 47  1  0  0  0  0
 24 25  1  0  0  0  0
 24 51  1  0  0  0  0
 24 52  1  0  0  0  0
 25 26  1  0  0  0  0
 25 39  1  0  0  0  0
 26 27  1  0  0  0  0
 26 37  1  0  0  0  0
 26 38  1  0  0  0  0
 27 28  2  0  0  0  0
 27 31  1  0  0  0  0
 28 29  1  0  0  0  0
 29 30  2  0  0  0  0
 30 31  1  0  0  0  0
 30 36  1  0  0  0  0
 31 32  1  0  0  0  0
 32 33  1  0  0  0  0
 32 34  1  0  0  0  0
 32 35  1  0  0  0  0
 39 40  2  0  0  0  0
 39 41  1  0  0  0  0
 41 42  2  0  0  0  0
 41 47  1  0  0  0  0
 42 43  1  0  0  0  0
 42 50  1  0  0  0  0
 43 44  2  0  0  0  0
 43 49  1  0  0  0  0
 44 45  1  0  0  0  0
 44 46  1  0  0  0  0
 46 47  2  0  0  0  0
 46 48  1  0  0  0  0
M  END
>  <MODEL>
       2

$$$$
