best_conformers_83.pdb
 OpenBabel02042510453D

 72 77  0  0  1  0  0  0  0  0999 V2000
    4.8270   -5.7640   26.4960 C   0  0  0  0  0  0  0  0  0  0  0  0
    5.2570   -5.1420   27.8260 C   0  0  2  0  0  0  0  0  0  0  0  0
    4.2990   -5.5880   28.9350 C   0  0  0  0  0  0  0  0  0  0  0  0
    4.3850   -4.8380   30.1230 O   0  0  0  0  0  0  0  0  0  0  0  0
    4.1650   -3.4690   29.8740 C   0  0  0  0  0  0  0  0  0  0  0  0
    5.2900   -2.8950   29.0260 C   0  0  1  0  0  0  0  0  0  0  0  0
    6.5990   -2.9930   29.7990 C   0  0  0  0  0  0  0  0  0  0  0  0
    7.4450   -2.5440   29.2810 H   0  0  0  0  0  0  0  0  0  0  0  0
    6.5040   -2.4830   30.7590 H   0  0  0  0  0  0  0  0  0  0  0  0
    6.8480   -4.0310   30.0130 H   0  0  0  0  0  0  0  0  0  0  0  0
    5.3480   -3.6370   27.6980 N   0  3  1  0  0  0  0  0  0  0  0  0
    6.5380   -3.2320   26.8820 C   0  0  0  0  0  0  0  0  0  0  0  0
    6.5600   -1.7380   26.5680 C   0  0  0  0  0  0  0  0  0  0  0  0
    7.4490   -1.4400   25.4490 N   0  0  0  0  0  0  0  0  0  0  0  0
    6.9170   -0.8050   24.2530 C   0  0  0  0  0  0  0  0  0  0  0  0
    7.8040   -0.9980   22.9920 C   0  0  2  0  0  0  0  0  0  0  0  0
    7.2530   -0.0150   21.9450 C   0  0  0  0  0  0  0  0  0  0  0  0
    7.3950    1.1930   21.9360 O   0  0  0  0  0  0  0  0  0  0  0  0
    6.5050   -0.7130   21.0220 N   0  0  0  0  0  0  0  0  0  0  0  0
    5.8810   -0.1090   19.9080 C   0  0  0  0  0  0  0  0  0  0  0  0
    6.3150   -0.4360   18.6490 C   0  0  0  0  0  0  0  0  0  0  0  0
    5.8300    0.0930   17.5000 N   0  0  0  0  0  0  0  0  0  0  0  0
    4.8520    0.9620   17.6160 C   0  0  0  0  0  0  0  0  0  0  0  0
    4.2780    1.3580   18.8570 C   0  0  0  0  0  0  0  0  0  0  0  0
    3.2180    2.3020   18.9200 C   0  0  0  0  0  0  0  0  0  0  0  0
    2.6470    2.6250   20.1210 C   0  0  0  0  0  0  0  0  0  0  0  0
    3.1050    2.0200   21.3130 C   0  0  0  0  0  0  0  0  0  0  0  0
    4.1410    1.1230   21.2810 C   0  0  0  0  0  0  0  0  0  0  0  0
    4.7770    0.7890   20.0510 C   0  0  0  0  0  0  0  0  0  0  0  0
    4.4940    0.6700   22.2030 H   0  0  0  0  0  0  0  0  0  0  0  0
    2.6340    2.2750   22.2600 H   0  0  0  0  0  0  0  0  0  0  0  0
    1.8360    3.3480   20.1660 H   0  0  0  0  0  0  0  0  0  0  0  0
    2.8770    2.7570   17.9940 H   0  0  0  0  0  0  0  0  0  0  0  0
    4.4610    1.4010   16.6970 H   0  0  0  0  0  0  0  0  0  0  0  0
    7.1270   -1.1560   18.5410 H   0  0  0  0  0  0  0  0  0  0  0  0
    6.3790   -2.1180   21.3320 C   0  0  0  0  0  0  0  0  0  0  0  0
    7.5680   -2.3680   22.2630 C   0  0  2  0  0  0  0  0  0  0  0  0
    7.3470   -3.5850   23.1450 C   0  0  0  0  0  0  0  0  0  0  0  0
    7.3070   -4.5000   22.5460 H   0  0  0  0  0  0  0  0  0  0  0  0
    6.3940   -3.5000   23.6800 H   0  0  0  0  0  0  0  0  0  0  0  0
    8.1450   -3.6880   23.8840 H   0  0  0  0  0  0  0  0  0  0  0  0
    8.4540   -2.5270   21.6330 H   0  0  0  0  0  0  0  0  0  0  0  0
    5.4210   -2.3340   21.8320 H   0  0  0  0  0  0  0  0  0  0  0  0
    6.3980   -2.7300   20.4280 H   0  0  0  0  0  0  0  0  0  0  0  0
    9.2590   -0.7160   23.3560 C   0  0  0  0  0  0  0  0  0  0  0  0
   10.1990   -0.2690   22.4080 C   0  0  0  0  0  0  0  0  0  0  0  0
   11.5150   -0.0430   22.7880 C   0  0  0  0  0  0  0  0  0  0  0  0
   12.6790    0.5560   21.6410 Cl  0  0  0  0  0  0  0  0  0  0  0  0
   11.9560   -0.2610   24.0910 C   0  0  0  0  0  0  0  0  0  0  0  0
   11.0430   -0.7080   25.0230 C   0  0  0  0  0  0  0  0  0  0  0  0
    9.7090   -0.9240   24.6660 C   0  0  0  0  0  0  0  0  0  0  0  0
    8.7830   -1.3910   25.7440 C   0  0  0  0  0  0  0  0  0  0  0  0
    9.2140   -1.7180   26.8390 O   0  0  0  0  0  0  0  0  0  0  0  0
   11.3510   -0.8940   26.0470 H   0  0  0  0  0  0  0  0  0  0  0  0
   12.9970   -0.0840   24.3490 H   0  0  0  0  0  0  0  0  0  0  0  0
    9.9190   -0.0680   21.3790 H   0  0  0  0  0  0  0  0  0  0  0  0
    5.9150   -1.2070   24.0540 H   0  0  0  0  0  0  0  0  0  0  0  0
    6.7970    0.2760   24.4090 H   0  0  0  0  0  0  0  0  0  0  0  0
    6.9000   -1.1750   27.4430 H   0  0  0  0  0  0  0  0  0  0  0  0
    5.5450   -1.4040   26.3260 H   0  0  0  0  0  0  0  0  0  0  0  0
    7.4540   -3.5160   27.4040 H   0  0  0  0  0  0  0  0  0  0  0  0
    6.5480   -3.7870   25.9440 H   0  0  0  0  0  0  0  0  0  0  0  0
    4.5130   -3.3790   27.1350 H   0  0  0  0  0  0  0  0  0  0  0  0
    5.0690   -1.8480   28.7980 H   0  0  0  0  0  0  0  0  0  0  0  0
    4.1540   -2.9630   30.8470 H   0  0  0  0  0  0  0  0  0  0  0  0
    3.1940   -3.3360   29.3760 H   0  0  0  0  0  0  0  0  0  0  0  0
    4.5480   -6.6150   29.2210 H   0  0  0  0  0  0  0  0  0  0  0  0
    3.2600   -5.5760   28.5750 H   0  0  0  0  0  0  0  0  0  0  0  0
    6.2600   -5.4770   28.1080 H   0  0  0  0  0  0  0  0  0  0  0  0
    3.8290   -5.3980   26.2110 H   0  0  0  0  0  0  0  0  0  0  0  0
    4.7830   -6.8550   26.5850 H   0  0  0  0  0  0  0  0  0  0  0  0
    5.5150   -5.5040   25.6830 H   0  0  0  0  0  0  0  0  0  0  0  0
  1  2  1  0  0  0  0
  1 70  1  0  0  0  0
  1 71  1  0  0  0  0
  1 72  1  0  0  0  0
  2  3  1  0  0  0  0
  2 11  1  0  0  0  0
  2 69  1  1  0  0  0
  3  4  1  0  0  0  0
  3 67  1  0  0  0  0
  3 68  1  0  0  0  0
  4  5  1  0  0  0  0
  5  6  1  0  0  0  0
  5 65  1  0  0  0  0
  5 66  1  0  0  0  0
  6  7  1  0  0  0  0
  6 11  1  0  0  0  0
  6 64  1  6  0  0  0
  7  8  1  0  0  0  0
  7  9  1  0  0  0  0
  7 10  1  0  0  0  0
 11 12  1  0  0  0  0
 11 63  1  6  0  0  0
 12 13  1  0  0  0  0
 12 61  1  0  0  0  0
 12 62  1  0  0  0  0
 13 14  1  0  0  0  0
 13 59  1  0  0  0  0
 13 60  1  0  0  0  0
 14 15  1  0  0  0  0
 14 52  1  0  0  0  0
 15 16  1  0  0  0  0
 15 57  1  0  0  0  0
 15 58  1  0  0  0  0
 16 17  1  6  0  0  0
 16 37  1  0  0  0  0
 16 45  1  0  0  0  0
 17 18  2  0  0  0  0
 17 19  1  0  0  0  0
 19 20  1  0  0  0  0
 19 36  1  0  0  0  0
 20 21  2  0  0  0  0
 20 29  1  0  0  0  0
 21 22  1  0  0  0  0
 21 35  1  0  0  0  0
 22 23  2  0  0  0  0
 23 24  1  0  0  0  0
 23 34  1  0  0  0  0
 24 25  2  0  0  0  0
 24 29  1  0  0  0  0
 25 26  1  0  0  0  0
 25 33  1  0  0  0  0
 26 27  2  0  0  0  0
 26 32  1  0  0  0  0
 27 28  1  0  0  0  0
 27 31  1  0  0  0  0
 28 29  2  0  0  0  0
 28 30  1  0  0  0  0
 36 37  1  0  0  0  0
 36 43  1  0  0  0  0
 36 44  1  0  0  0  0
 37 38  1  0  0  0  0
 37 42  1  6  0  0  0
 38 39  1  0  0  0  0
 38 40  1  0  0  0  0
 38 41  1  0  0  0  0
 45 46  2  0  0  0  0
 45 51  1  0  0  0  0
 46 47  1  0  0  0  0
 46 56  1  0  0  0  0
 47 48  1  0  0  0  0
 47 49  2  0  0  0  0
 49 50  1  0  0  0  0
 49 55  1  0  0  0  0
 50 51  2  0  0  0  0
 50 54  1  0  0  0  0
 51 52  1  0  0  0  0
 52 53  2  0  0  0  0
M  CHG  1  11   1
M  END
>  <MODEL>
       1

$$$$
best_conformers_83.pdb
 OpenBabel02042510453D

 72 77  0  0  1  0  0  0  0  0999 V2000
    4.5580   -5.8590   26.8240 C   0  0  0  0  0  0  0  0  0  0  0  0
    4.7550   -5.0720   28.1190 C   0  0  2  0  0  0  0  0  0  0  0  0
    3.6210   -5.3800   29.0930 C   0  0  0  0  0  0  0  0  0  0  0  0
    3.7240   -4.6480   30.2930 O   0  0  0  0  0  0  0  0  0  0  0  0
    3.6450   -3.2680   30.0170 C   0  0  0  0  0  0  0  0  0  0  0  0
    4.8210   -2.7800   29.1710 C   0  0  1  0  0  0  0  0  0  0  0  0
    6.1320   -2.8840   29.9500 C   0  0  0  0  0  0  0  0  0  0  0  0
    6.9750   -2.4530   29.3950 H   0  0  0  0  0  0  0  0  0  0  0  0
    6.0400   -2.3500   30.9050 H   0  0  0  0  0  0  0  0  0  0  0  0
    6.3650   -3.9290   30.1780 H   0  0  0  0  0  0  0  0  0  0  0  0
    4.8520   -3.5730   27.8660 N   0  3  1  0  0  0  0  0  0  0  0  0
    5.9930   -3.2210   26.9510 C   0  0  0  0  0  0  0  0  0  0  0  0
    6.0870   -1.7270   26.6030 C   0  0  0  0  0  0  0  0  0  0  0  0
    7.0580   -1.4410   25.5390 N   0  0  0  0  0  0  0  0  0  0  0  0
    6.6070   -0.8080   24.3060 C   0  0  0  0  0  0  0  0  0  0  0  0
    7.5220   -1.0870   23.0860 C   0  0  2  0  0  0  0  0  0  0  0  0
    7.1100   -0.0960   21.9810 C   0  0  0  0  0  0  0  0  0  0  0  0
    7.2810    1.1060   21.9810 O   0  0  0  0  0  0  0  0  0  0  0  0
    6.4600   -0.7880   20.9800 N   0  0  0  0  0  0  0  0  0  0  0  0
    5.8490   -0.1520   19.8670 C   0  0  0  0  0  0  0  0  0  0  0  0
    6.2560   -0.4560   18.5900 C   0  0  0  0  0  0  0  0  0  0  0  0
    5.7660    0.1180   17.4630 N   0  0  0  0  0  0  0  0  0  0  0  0
    4.8030    1.0000   17.6060 C   0  0  0  0  0  0  0  0  0  0  0  0
    4.2380    1.3670   18.8580 C   0  0  0  0  0  0  0  0  0  0  0  0
    3.1770    2.3120   18.9520 C   0  0  0  0  0  0  0  0  0  0  0  0
    2.6280    2.6260   20.1670 C   0  0  0  0  0  0  0  0  0  0  0  0
    3.1130    1.9990   21.3410 C   0  0  0  0  0  0  0  0  0  0  0  0
    4.1410    1.0910   21.2700 C   0  0  0  0  0  0  0  0  0  0  0  0
    4.7550    0.7660   20.0280 C   0  0  0  0  0  0  0  0  0  0  0  0
    4.5020    0.6210   22.1780 H   0  0  0  0  0  0  0  0  0  0  0  0
    2.6780    2.2500   22.3040 H   0  0  0  0  0  0  0  0  0  0  0  0
    1.8240    3.3530   20.2410 H   0  0  0  0  0  0  0  0  0  0  0  0
    2.8160    2.7800   18.0400 H   0  0  0  0  0  0  0  0  0  0  0  0
    4.4180    1.4630   16.6990 H   0  0  0  0  0  0  0  0  0  0  0  0
    7.0410   -1.1930   18.4240 H   0  0  0  0  0  0  0  0  0  0  0  0
    6.3160   -2.2080   21.2490 C   0  0  0  0  0  0  0  0  0  0  0  0
    7.2980   -2.4810   22.4000 C   0  0  2  0  0  0  0  0  0  0  0  0
    6.8540   -3.6400   23.3010 C   0  0  0  0  0  0  0  0  0  0  0  0
    5.8510   -3.4620   23.7110 H   0  0  0  0  0  0  0  0  0  0  0  0
    7.5340   -3.7680   24.1510 H   0  0  0  0  0  0  0  0  0  0  0  0
    6.8270   -4.5850   22.7430 H   0  0  0  0  0  0  0  0  0  0  0  0
    8.2740   -2.7410   21.9670 H   0  0  0  0  0  0  0  0  0  0  0  0
    6.5470   -2.7750   20.3490 H   0  0  0  0  0  0  0  0  0  0  0  0
    5.2820   -2.4690   21.5280 H   0  0  0  0  0  0  0  0  0  0  0  0
    8.9690   -0.8950   23.4940 C   0  0  0  0  0  0  0  0  0  0  0  0
    9.9470   -0.6330   22.5280 C   0  0  0  0  0  0  0  0  0  0  0  0
   11.2750   -0.5270   22.9050 C   0  0  0  0  0  0  0  0  0  0  0  0
   12.4960   -0.1710   21.7240 Cl  0  0  0  0  0  0  0  0  0  0  0  0
   11.6760   -0.7070   24.2250 C   0  0  0  0  0  0  0  0  0  0  0  0
   10.7150   -0.9960   25.1730 C   0  0  0  0  0  0  0  0  0  0  0  0
    9.3690   -1.0840   24.8150 C   0  0  0  0  0  0  0  0  0  0  0  0
    8.3830   -1.4850   25.8620 C   0  0  0  0  0  0  0  0  0  0  0  0
    8.7640   -1.8730   26.9580 O   0  0  0  0  0  0  0  0  0  0  0  0
   10.9930   -1.1800   26.2020 H   0  0  0  0  0  0  0  0  0  0  0  0
   12.7290   -0.6250   24.4750 H   0  0  0  0  0  0  0  0  0  0  0  0
    9.6680   -0.4940   21.4890 H   0  0  0  0  0  0  0  0  0  0  0  0
    6.5600    0.2870   24.4140 H   0  0  0  0  0  0  0  0  0  0  0  0
    5.5990   -1.1870   24.0990 H   0  0  0  0  0  0  0  0  0  0  0  0
    5.1100   -1.3770   26.2490 H   0  0  0  0  0  0  0  0  0  0  0  0
    6.3470   -1.1460   27.4970 H   0  0  0  0  0  0  0  0  0  0  0  0
    6.9330   -3.5480   27.4050 H   0  0  0  0  0  0  0  0  0  0  0  0
    5.8530   -3.7760   26.0190 H   0  0  0  0  0  0  0  0  0  0  0  0
    3.9830   -3.3360   27.3440 H   0  0  0  0  0  0  0  0  0  0  0  0
    4.6270   -1.7330   28.9110 H   0  0  0  0  0  0  0  0  0  0  0  0
    2.7040   -3.0420   29.4860 H   0  0  0  0  0  0  0  0  0  0  0  0
    3.6340   -2.7630   30.9890 H   0  0  0  0  0  0  0  0  0  0  0  0
    2.6540   -5.1720   28.5940 H   0  0  0  0  0  0  0  0  0  0  0  0
    3.6530   -6.4380   29.3780 H   0  0  0  0  0  0  0  0  0  0  0  0
    5.6940   -5.3840   28.5890 H   0  0  0  0  0  0  0  0  0  0  0  0
    4.2840   -6.8970   27.0530 H   0  0  0  0  0  0  0  0  0  0  0  0
    3.7500   -5.4210   26.2210 H   0  0  0  0  0  0  0  0  0  0  0  0
    5.4650   -5.8820   26.2120 H   0  0  0  0  0  0  0  0  0  0  0  0
  1  2  1  0  0  0  0
  1 70  1  0  0  0  0
  1 71  1  0  0  0  0
  1 72  1  0  0  0  0
  2  3  1  0  0  0  0
  2 11  1  0  0  0  0
  2 69  1  1  0  0  0
  3  4  1  0  0  0  0
  3 67  1  0  0  0  0
  3 68  1  0  0  0  0
  4  5  1  0  0  0  0
  5  6  1  0  0  0  0
  5 65  1  0  0  0  0
  5 66  1  0  0  0  0
  6  7  1  0  0  0  0
  6 11  1  0  0  0  0
  6 64  1  6  0  0  0
  7  8  1  0  0  0  0
  7  9  1  0  0  0  0
  7 10  1  0  0  0  0
 11 12  1  0  0  0  0
 11 63  1  6  0  0  0
 12 13  1  0  0  0  0
 12 61  1  0  0  0  0
 12 62  1  0  0  0  0
 13 14  1  0  0  0  0
 13 59  1  0  0  0  0
 13 60  1  0  0  0  0
 14 15  1  0  0  0  0
 14 52  1  0  0  0  0
 15 16  1  0  0  0  0
 15 57  1  0  0  0  0
 15 58  1  0  0  0  0
 16 17  1  6  0  0  0
 16 37  1  0  0  0  0
 16 45  1  0  0  0  0
 17 18  2  0  0  0  0
 17 19  1  0  0  0  0
 19 20  1  0  0  0  0
 19 36  1  0  0  0  0
 20 21  2  0  0  0  0
 20 29  1  0  0  0  0
 21 22  1  0  0  0  0
 21 35  1  0  0  0  0
 22 23  2  0  0  0  0
 23 24  1  0  0  0  0
 23 34  1  0  0  0  0
 24 25  2  0  0  0  0
 24 29  1  0  0  0  0
 25 26  1  0  0  0  0
 25 33  1  0  0  0  0
 26 27  2  0  0  0  0
 26 32  1  0  0  0  0
 27 28  1  0  0  0  0
 27 31  1  0  0  0  0
 28 29  2  0  0  0  0
 28 30  1  0  0  0  0
 36 37  1  0  0  0  0
 36 43  1  0  0  0  0
 36 44  1  0  0  0  0
 37 38  1  0  0  0  0
 37 42  1  6  0  0  0
 38 39  1  0  0  0  0
 38 40  1  0  0  0  0
 38 41  1  0  0  0  0
 45 46  2  0  0  0  0
 45 51  1  0  0  0  0
 46 47  1  0  0  0  0
 46 56  1  0  0  0  0
 47 48  1  0  0  0  0
 47 49  2  0  0  0  0
 49 50  1  0  0  0  0
 49 55  1  0  0  0  0
 50 51  2  0  0  0  0
 50 54  1  0  0  0  0
 51 52  1  0  0  0  0
 52 53  2  0  0  0  0
M  CHG  1  11   1
M  END
>  <MODEL>
       2

$$$$
best_conformers_83.pdb
 OpenBabel02042510453D

 72 77  0  0  1  0  0  0  0  0999 V2000
    6.1800   -2.9290   29.6170 C   0  0  0  0  0  0  0  0  0  0  0  0
    5.2250   -1.7550   29.7810 C   0  0  2  0  0  0  0  0  0  0  0  0
    4.1350   -2.0720   30.7970 C   0  0  0  0  0  0  0  0  0  0  0  0
    3.2700   -3.0850   30.3360 O   0  0  0  0  0  0  0  0  0  0  0  0
    2.5390   -2.6250   29.2230 C   0  0  0  0  0  0  0  0  0  0  0  0
    3.4230   -2.2820   28.0240 C   0  0  1  0  0  0  0  0  0  0  0  0
    2.5800   -1.6420   26.9310 C   0  0  0  0  0  0  0  0  0  0  0  0
    2.1190   -0.7150   27.2960 H   0  0  0  0  0  0  0  0  0  0  0  0
    3.1640   -1.3980   26.0420 H   0  0  0  0  0  0  0  0  0  0  0  0
    1.7790   -2.3200   26.6280 H   0  0  0  0  0  0  0  0  0  0  0  0
    4.5470   -1.3440   28.4690 N   0  3  2  0  0  0  0  0  0  0  0  0
    5.5260   -0.9080   27.3990 C   0  0  0  0  0  0  0  0  0  0  0  0
    6.0080   -1.9970   26.4280 C   0  0  0  0  0  0  0  0  0  0  0  0
    7.0130   -1.5110   25.4960 N   0  0  0  0  0  0  0  0  0  0  0  0
    6.5940   -0.8090   24.2970 C   0  0  0  0  0  0  0  0  0  0  0  0
    7.5140   -1.0840   23.0800 C   0  0  2  0  0  0  0  0  0  0  0  0
    7.1080   -0.0930   21.9700 C   0  0  0  0  0  0  0  0  0  0  0  0
    7.2860    1.1100   21.9620 O   0  0  0  0  0  0  0  0  0  0  0  0
    6.4550   -0.7870   20.9780 N   0  0  0  0  0  0  0  0  0  0  0  0
    5.8490   -0.1510   19.8660 C   0  0  0  0  0  0  0  0  0  0  0  0
    6.2620   -0.4570   18.5940 C   0  0  0  0  0  0  0  0  0  0  0  0
    5.7740    0.1140   17.4650 N   0  0  0  0  0  0  0  0  0  0  0  0
    4.8100    0.9940   17.6110 C   0  0  0  0  0  0  0  0  0  0  0  0
    4.2440    1.3640   18.8640 C   0  0  0  0  0  0  0  0  0  0  0  0
    3.1810    2.3080   18.9560 C   0  0  0  0  0  0  0  0  0  0  0  0
    2.6320    2.6210   20.1670 C   0  0  0  0  0  0  0  0  0  0  0  0
    3.1130    1.9990   21.3400 C   0  0  0  0  0  0  0  0  0  0  0  0
    4.1390    1.0930   21.2770 C   0  0  0  0  0  0  0  0  0  0  0  0
    4.7570    0.7660   20.0360 C   0  0  0  0  0  0  0  0  0  0  0  0
    4.4990    0.6260   22.1880 H   0  0  0  0  0  0  0  0  0  0  0  0
    2.6740    2.2520   22.3020 H   0  0  0  0  0  0  0  0  0  0  0  0
    1.8270    3.3520   20.2360 H   0  0  0  0  0  0  0  0  0  0  0  0
    2.8250    2.7750   18.0390 H   0  0  0  0  0  0  0  0  0  0  0  0
    4.4220    1.4550   16.7030 H   0  0  0  0  0  0  0  0  0  0  0  0
    7.0470   -1.1960   18.4340 H   0  0  0  0  0  0  0  0  0  0  0  0
    6.3030   -2.2050   21.2510 C   0  0  0  0  0  0  0  0  0  0  0  0
    7.2960   -2.4810   22.3910 C   0  0  2  0  0  0  0  0  0  0  0  0
    6.8630   -3.6400   23.2940 C   0  0  0  0  0  0  0  0  0  0  0  0
    5.8720   -3.4600   23.7260 H   0  0  0  0  0  0  0  0  0  0  0  0
    6.8080   -4.5750   22.7290 H   0  0  0  0  0  0  0  0  0  0  0  0
    7.5610   -3.7840   24.1240 H   0  0  0  0  0  0  0  0  0  0  0  0
    8.2720   -2.7280   21.9480 H   0  0  0  0  0  0  0  0  0  0  0  0
    5.2710   -2.4420   21.5510 H   0  0  0  0  0  0  0  0  0  0  0  0
    6.5160   -2.7770   20.3490 H   0  0  0  0  0  0  0  0  0  0  0  0
    8.9530   -0.8850   23.5200 C   0  0  0  0  0  0  0  0  0  0  0  0
    9.9460   -0.6050   22.5720 C   0  0  0  0  0  0  0  0  0  0  0  0
   11.2650   -0.4910   22.9730 C   0  0  0  0  0  0  0  0  0  0  0  0
   12.5010   -0.1120   21.8110 Cl  0  0  0  0  0  0  0  0  0  0  0  0
   11.6380   -0.6720   24.3050 C   0  0  0  0  0  0  0  0  0  0  0  0
   10.6640   -0.9850   25.2350 C   0  0  0  0  0  0  0  0  0  0  0  0
    9.3290   -1.0990   24.8500 C   0  0  0  0  0  0  0  0  0  0  0  0
    8.3240   -1.5530   25.8670 C   0  0  0  0  0  0  0  0  0  0  0  0
    8.6800   -1.9760   26.9540 O   0  0  0  0  0  0  0  0  0  0  0  0
   10.9100   -1.1770   26.2760 H   0  0  0  0  0  0  0  0  0  0  0  0
   12.6840   -0.5850   24.5810 H   0  0  0  0  0  0  0  0  0  0  0  0
    9.6870   -0.4640   21.5280 H   0  0  0  0  0  0  0  0  0  0  0  0
    5.5690   -1.1260   24.0640 H   0  0  0  0  0  0  0  0  0  0  0  0
    6.6110    0.2830   24.4520 H   0  0  0  0  0  0  0  0  0  0  0  0
    5.1610   -2.3770   25.8440 H   0  0  0  0  0  0  0  0  0  0  0  0
    6.4520   -2.8280   26.9770 H   0  0  0  0  0  0  0  0  0  0  0  0
    5.0510   -0.1070   26.8190 H   0  0  0  0  0  0  0  0  0  0  0  0
    6.3980   -0.4860   27.9120 H   0  0  0  0  0  0  0  0  0  0  0  0
    4.0330   -0.4710   28.7180 H   0  0  0  0  0  0  0  0  0  0  0  0
    3.8870   -3.2080   27.6700 H   0  0  0  0  0  0  0  0  0  0  0  0
    1.9450   -1.7350   29.5030 H   0  0  0  0  0  0  0  0  0  0  0  0
    1.8510   -3.4320   28.9540 H   0  0  0  0  0  0  0  0  0  0  0  0
    4.5720   -2.4450   31.7270 H   0  0  0  0  0  0  0  0  0  0  0  0
    3.5600   -1.1580   31.0140 H   0  0  0  0  0  0  0  0  0  0  0  0
    5.7740   -0.8720   30.1310 H   0  0  0  0  0  0  0  0  0  0  0  0
    7.0790   -2.6450   29.0620 H   0  0  0  0  0  0  0  0  0  0  0  0
    6.4890   -3.2830   30.6030 H   0  0  0  0  0  0  0  0  0  0  0  0
    5.6800   -3.7580   29.1090 H   0  0  0  0  0  0  0  0  0  0  0  0
  1  2  1  0  0  0  0
  1 70  1  0  0  0  0
  1 71  1  0  0  0  0
  1 72  1  0  0  0  0
  2  3  1  0  0  0  0
  2 11  1  0  0  0  0
  2 69  1  1  0  0  0
  3  4  1  0  0  0  0
  3 67  1  0  0  0  0
  3 68  1  0  0  0  0
  4  5  1  0  0  0  0
  5  6  1  0  0  0  0
  5 65  1  0  0  0  0
  5 66  1  0  0  0  0
  6  7  1  0  0  0  0
  6 11  1  0  0  0  0
  6 64  1  6  0  0  0
  7  8  1  0  0  0  0
  7  9  1  0  0  0  0
  7 10  1  0  0  0  0
 11 12  1  0  0  0  0
 11 63  1  1  0  0  0
 12 13  1  0  0  0  0
 12 61  1  0  0  0  0
 12 62  1  0  0  0  0
 13 14  1  0  0  0  0
 13 59  1  0  0  0  0
 13 60  1  0  0  0  0
 14 15  1  0  0  0  0
 14 52  1  0  0  0  0
 15 16  1  0  0  0  0
 15 57  1  0  0  0  0
 15 58  1  0  0  0  0
 16 17  1  6  0  0  0
 16 37  1  0  0  0  0
 16 45  1  0  0  0  0
 17 18  2  0  0  0  0
 17 19  1  0  0  0  0
 19 20  1  0  0  0  0
 19 36  1  0  0  0  0
 20 21  2  0  0  0  0
 20 29  1  0  0  0  0
 21 22  1  0  0  0  0
 21 35  1  0  0  0  0
 22 23  2  0  0  0  0
 23 24  1  0  0  0  0
 23 34  1  0  0  0  0
 24 25  2  0  0  0  0
 24 29  1  0  0  0  0
 25 26  1  0  0  0  0
 25 33  1  0  0  0  0
 26 27  2  0  0  0  0
 26 32  1  0  0  0  0
 27 28  1  0  0  0  0
 27 31  1  0  0  0  0
 28 29  2  0  0  0  0
 28 30  1  0  0  0  0
 36 37  1  0  0  0  0
 36 43  1  0  0  0  0
 36 44  1  0  0  0  0
 37 38  1  0  0  0  0
 37 42  1  6  0  0  0
 38 39  1  0  0  0  0
 38 40  1  0  0  0  0
 38 41  1  0  0  0  0
 45 46  2  0  0  0  0
 45 51  1  0  0  0  0
 46 47  1  0  0  0  0
 46 56  1  0  0  0  0
 47 48  1  0  0  0  0
 47 49  2  0  0  0  0
 49 50  1  0  0  0  0
 49 55  1  0  0  0  0
 50 51  2  0  0  0  0
 50 54  1  0  0  0  0
 51 52  1  0  0  0  0
 52 53  2  0  0  0  0
M  CHG  1  11   1
M  END
>  <MODEL>
       3

$$$$
best_conformers_83.pdb
 OpenBabel02042510453D

 72 77  0  0  1  0  0  0  0  0999 V2000
    6.0080   -2.8920   29.6770 C   0  0  0  0  0  0  0  0  0  0  0  0
    4.9680   -1.7810   29.7670 C   0  0  2  0  0  0  0  0  0  0  0  0
    3.8200   -2.1940   30.6880 C   0  0  0  0  0  0  0  0  0  0  0  0
    2.8070   -1.2150   30.7810 O   0  0  0  0  0  0  0  0  0  0  0  0
    2.2400   -0.9810   29.5100 C   0  0  0  0  0  0  0  0  0  0  0  0
    3.2610   -0.4080   28.5340 C   0  0  1  0  0  0  0  0  0  0  0  0
    3.7170    0.9770   28.9980 C   0  0  0  0  0  0  0  0  0  0  0  0
    4.1260    0.9350   30.0130 H   0  0  0  0  0  0  0  0  0  0  0  0
    2.8610    1.6650   29.0100 H   0  0  0  0  0  0  0  0  0  0  0  0
    4.4760    1.3940   28.3270 H   0  0  0  0  0  0  0  0  0  0  0  0
    4.4200   -1.3960   28.3960 N   0  3  1  0  0  0  0  0  0  0  0  0
    5.4660   -0.9300   27.4220 C   0  0  0  0  0  0  0  0  0  0  0  0
    5.9320   -2.0080   26.4260 C   0  0  0  0  0  0  0  0  0  0  0  0
    6.9470   -1.5300   25.4890 N   0  0  0  0  0  0  0  0  0  0  0  0
    6.5460   -0.8070   24.2950 C   0  0  0  0  0  0  0  0  0  0  0  0
    7.4900   -1.0790   23.0990 C   0  0  2  0  0  0  0  0  0  0  0  0
    7.1050   -0.0920   21.9840 C   0  0  0  0  0  0  0  0  0  0  0  0
    7.2830    1.1080   21.9810 O   0  0  0  0  0  0  0  0  0  0  0  0
    6.4620   -0.7870   20.9800 N   0  0  0  0  0  0  0  0  0  0  0  0
    5.8490   -0.1510   19.8680 C   0  0  0  0  0  0  0  0  0  0  0  0
    6.2560   -0.4560   18.5890 C   0  0  0  0  0  0  0  0  0  0  0  0
    5.7650    0.1180   17.4640 N   0  0  0  0  0  0  0  0  0  0  0  0
    4.8020    1.0000   17.6050 C   0  0  0  0  0  0  0  0  0  0  0  0
    4.2370    1.3670   18.8580 C   0  0  0  0  0  0  0  0  0  0  0  0
    3.1770    2.3120   18.9510 C   0  0  0  0  0  0  0  0  0  0  0  0
    2.6280    2.6250   20.1680 C   0  0  0  0  0  0  0  0  0  0  0  0
    3.1120    1.9980   21.3400 C   0  0  0  0  0  0  0  0  0  0  0  0
    4.1400    1.0890   21.2710 C   0  0  0  0  0  0  0  0  0  0  0  0
    4.7540    0.7660   20.0260 C   0  0  0  0  0  0  0  0  0  0  0  0
    4.5020    0.6190   22.1780 H   0  0  0  0  0  0  0  0  0  0  0  0
    2.6770    2.2490   22.3030 H   0  0  0  0  0  0  0  0  0  0  0  0
    1.8230    3.3530   20.2410 H   0  0  0  0  0  0  0  0  0  0  0  0
    2.8150    2.7810   18.0400 H   0  0  0  0  0  0  0  0  0  0  0  0
    4.4170    1.4640   16.6990 H   0  0  0  0  0  0  0  0  0  0  0  0
    7.0400   -1.1930   18.4230 H   0  0  0  0  0  0  0  0  0  0  0  0
    6.3080   -2.2050   21.2570 C   0  0  0  0  0  0  0  0  0  0  0  0
    7.2790   -2.4750   22.4170 C   0  0  2  0  0  0  0  0  0  0  0  0
    6.8270   -3.6360   23.3120 C   0  0  0  0  0  0  0  0  0  0  0  0
    7.5110   -3.7790   24.1550 H   0  0  0  0  0  0  0  0  0  0  0  0
    6.7740   -4.5760   22.7460 H   0  0  0  0  0  0  0  0  0  0  0  0
    5.8310   -3.4480   23.7360 H   0  0  0  0  0  0  0  0  0  0  0  0
    8.2600   -2.7350   21.9960 H   0  0  0  0  0  0  0  0  0  0  0  0
    5.2700   -2.4610   21.5260 H   0  0  0  0  0  0  0  0  0  0  0  0
    6.5470   -2.7820   20.3660 H   0  0  0  0  0  0  0  0  0  0  0  0
    8.9220   -0.8880   23.5580 C   0  0  0  0  0  0  0  0  0  0  0  0
    9.9290   -0.6100   22.6290 C   0  0  0  0  0  0  0  0  0  0  0  0
   11.2430   -0.4940   23.0480 C   0  0  0  0  0  0  0  0  0  0  0  0
   12.4830   -0.1170   21.8900 Cl  0  0  0  0  0  0  0  0  0  0  0  0
   11.6040   -0.6770   24.3800 C   0  0  0  0  0  0  0  0  0  0  0  0
   10.6120   -0.9850   25.2930 C   0  0  0  0  0  0  0  0  0  0  0  0
    9.2780   -1.0900   24.8930 C   0  0  0  0  0  0  0  0  0  0  0  0
    8.2520   -1.5440   25.8880 C   0  0  0  0  0  0  0  0  0  0  0  0
    8.5710   -1.9540   26.9920 O   0  0  0  0  0  0  0  0  0  0  0  0
   10.8620   -1.1730   26.3290 H   0  0  0  0  0  0  0  0  0  0  0  0
   12.6470   -0.5870   24.6680 H   0  0  0  0  0  0  0  0  0  0  0  0
    9.6870   -0.4670   21.5830 H   0  0  0  0  0  0  0  0  0  0  0  0
    6.5610    0.2800   24.4660 H   0  0  0  0  0  0  0  0  0  0  0  0
    5.5230   -1.1110   24.0500 H   0  0  0  0  0  0  0  0  0  0  0  0
    6.3410   -2.8740   26.9570 H   0  0  0  0  0  0  0  0  0  0  0  0
    5.0670   -2.3420   25.8380 H   0  0  0  0  0  0  0  0  0  0  0  0
    5.0250   -0.1120   26.8430 H   0  0  0  0  0  0  0  0  0  0  0  0
    6.3270   -0.5460   27.9810 H   0  0  0  0  0  0  0  0  0  0  0  0
    4.0290   -2.2690   27.9870 H   0  0  0  0  0  0  0  0  0  0  0  0
    2.7930   -0.3190   27.5460 H   0  0  0  0  0  0  0  0  0  0  0  0
    1.4170   -0.2730   29.6690 H   0  0  0  0  0  0  0  0  0  0  0  0
    1.8330   -1.9170   29.0920 H   0  0  0  0  0  0  0  0  0  0  0  0
    3.3990   -3.1500   30.3230 H   0  0  0  0  0  0  0  0  0  0  0  0
    4.1910   -2.3380   31.7100 H   0  0  0  0  0  0  0  0  0  0  0  0
    5.4400   -0.8920   30.1960 H   0  0  0  0  0  0  0  0  0  0  0  0
    6.9160   -2.5630   29.1580 H   0  0  0  0  0  0  0  0  0  0  0  0
    6.2950   -3.2210   30.6840 H   0  0  0  0  0  0  0  0  0  0  0  0
    5.5990   -3.7650   29.1470 H   0  0  0  0  0  0  0  0  0  0  0  0
  1  2  1  0  0  0  0
  1 70  1  0  0  0  0
  1 71  1  0  0  0  0
  1 72  1  0  0  0  0
  2  3  1  0  0  0  0
  2 11  1  0  0  0  0
  2 69  1  1  0  0  0
  3  4  1  0  0  0  0
  3 67  1  0  0  0  0
  3 68  1  0  0  0  0
  4  5  1  0  0  0  0
  5  6  1  0  0  0  0
  5 65  1  0  0  0  0
  5 66  1  0  0  0  0
  6  7  1  0  0  0  0
  6 11  1  0  0  0  0
  6 64  1  6  0  0  0
  7  8  1  0  0  0  0
  7  9  1  0  0  0  0
  7 10  1  0  0  0  0
 11 12  1  0  0  0  0
 11 63  1  6  0  0  0
 12 13  1  0  0  0  0
 12 61  1  0  0  0  0
 12 62  1  0  0  0  0
 13 14  1  0  0  0  0
 13 59  1  0  0  0  0
 13 60  1  0  0  0  0
 14 15  1  0  0  0  0
 14 52  1  0  0  0  0
 15 16  1  0  0  0  0
 15 57  1  0  0  0  0
 15 58  1  0  0  0  0
 16 17  1  6  0  0  0
 16 37  1  0  0  0  0
 16 45  1  0  0  0  0
 17 18  2  0  0  0  0
 17 19  1  0  0  0  0
 19 20  1  0  0  0  0
 19 36  1  0  0  0  0
 20 21  2  0  0  0  0
 20 29  1  0  0  0  0
 21 22  1  0  0  0  0
 21 35  1  0  0  0  0
 22 23  2  0  0  0  0
 23 24  1  0  0  0  0
 23 34  1  0  0  0  0
 24 25  2  0  0  0  0
 24 29  1  0  0  0  0
 25 26  1  0  0  0  0
 25 33  1  0  0  0  0
 26 27  2  0  0  0  0
 26 32  1  0  0  0  0
 27 28  1  0  0  0  0
 27 31  1  0  0  0  0
 28 29  2  0  0  0  0
 28 30  1  0  0  0  0
 36 37  1  0  0  0  0
 36 43  1  0  0  0  0
 36 44  1  0  0  0  0
 37 38  1  0  0  0  0
 37 42  1  6  0  0  0
 38 39  1  0  0  0  0
 38 40  1  0  0  0  0
 38 41  1  0  0  0  0
 45 46  2  0  0  0  0
 45 51  1  0  0  0  0
 46 47  1  0  0  0  0
 46 56  1  0  0  0  0
 47 48  1  0  0  0  0
 47 49  2  0  0  0  0
 49 50  1  0  0  0  0
 49 55  1  0  0  0  0
 50 51  2  0  0  0  0
 50 54  1  0  0  0  0
 51 52  1  0  0  0  0
 52 53  2  0  0  0  0
M  CHG  1  11   1
M  END
>  <MODEL>
       4

$$$$
best_conformers_83.pdb
 OpenBabel02042510453D

 72 77  0  0  1  0  0  0  0  0999 V2000
    3.6090    1.7780   25.6570 C   0  0  0  0  0  0  0  0  0  0  0  0
    3.6010    0.4400   26.3920 C   0  0  2  0  0  0  0  0  0  0  0  0
    2.3390    0.2800   27.2430 C   0  0  0  0  0  0  0  0  0  0  0  0
    2.3150    1.1770   28.3360 O   0  0  0  0  0  0  0  0  0  0  0  0
    3.4040    0.9380   29.2050 C   0  0  0  0  0  0  0  0  0  0  0  0
    4.7340    1.1830   28.4950 C   0  0  1  0  0  0  0  0  0  0  0  0
    5.9240    1.0490   29.4390 C   0  0  0  0  0  0  0  0  0  0  0  0
    5.9410    1.8950   30.1360 H   0  0  0  0  0  0  0  0  0  0  0  0
    6.8670    1.0560   28.8800 H   0  0  0  0  0  0  0  0  0  0  0  0
    5.8850    0.1290   30.0370 H   0  0  0  0  0  0  0  0  0  0  0  0
    4.8440    0.2780   27.2640 N   0  3  1  0  0  0  0  0  0  0  0  0
    5.1800   -1.1480   27.5840 C   0  0  0  0  0  0  0  0  0  0  0  0
    5.6020   -1.9540   26.3470 C   0  0  0  0  0  0  0  0  0  0  0  0
    6.6530   -1.3580   25.5270 N   0  0  0  0  0  0  0  0  0  0  0  0
    6.3460   -0.7130   24.2660 C   0  0  0  0  0  0  0  0  0  0  0  0
    7.3720   -1.0510   23.1510 C   0  0  2  0  0  0  0  0  0  0  0  0
    7.0790   -0.0880   21.9890 C   0  0  0  0  0  0  0  0  0  0  0  0
    7.2940    1.1080   21.9630 O   0  0  0  0  0  0  0  0  0  0  0  0
    6.4580   -0.7900   20.9770 N   0  0  0  0  0  0  0  0  0  0  0  0
    5.8490   -0.1520   19.8650 C   0  0  0  0  0  0  0  0  0  0  0  0
    6.2570   -0.4570   18.5910 C   0  0  0  0  0  0  0  0  0  0  0  0
    5.7660    0.1160   17.4640 N   0  0  0  0  0  0  0  0  0  0  0  0
    4.8050    0.9980   17.6080 C   0  0  0  0  0  0  0  0  0  0  0  0
    4.2400    1.3680   18.8590 C   0  0  0  0  0  0  0  0  0  0  0  0
    3.1780    2.3130   18.9510 C   0  0  0  0  0  0  0  0  0  0  0  0
    2.6300    2.6260   20.1650 C   0  0  0  0  0  0  0  0  0  0  0  0
    3.1150    1.9980   21.3370 C   0  0  0  0  0  0  0  0  0  0  0  0
    4.1410    1.0910   21.2750 C   0  0  0  0  0  0  0  0  0  0  0  0
    4.7570    0.7670   20.0300 C   0  0  0  0  0  0  0  0  0  0  0  0
    4.5010    0.6200   22.1860 H   0  0  0  0  0  0  0  0  0  0  0  0
    2.6680    2.2580   22.2940 H   0  0  0  0  0  0  0  0  0  0  0  0
    1.8260    3.3540   20.2380 H   0  0  0  0  0  0  0  0  0  0  0  0
    2.8170    2.7810   18.0380 H   0  0  0  0  0  0  0  0  0  0  0  0
    4.4190    1.4610   16.7000 H   0  0  0  0  0  0  0  0  0  0  0  0
    7.0410   -1.1950   18.4290 H   0  0  0  0  0  0  0  0  0  0  0  0
    6.2600   -2.1990   21.2780 C   0  0  0  0  0  0  0  0  0  0  0  0
    7.1720   -2.4600   22.4890 C   0  0  2  0  0  0  0  0  0  0  0  0
    6.6570   -3.5910   23.3880 C   0  0  0  0  0  0  0  0  0  0  0  0
    6.6250   -4.5440   22.8430 H   0  0  0  0  0  0  0  0  0  0  0  0
    7.2940   -3.7240   24.2680 H   0  0  0  0  0  0  0  0  0  0  0  0
    5.6410   -3.3820   23.7490 H   0  0  0  0  0  0  0  0  0  0  0  0
    8.1670   -2.7440   22.1180 H   0  0  0  0  0  0  0  0  0  0  0  0
    5.2060   -2.4200   21.5120 H   0  0  0  0  0  0  0  0  0  0  0  0
    6.5280   -2.8070   20.4140 H   0  0  0  0  0  0  0  0  0  0  0  0
    8.7730   -0.8800   23.7030 C   0  0  0  0  0  0  0  0  0  0  0  0
    9.8460   -0.6520   22.8330 C   0  0  0  0  0  0  0  0  0  0  0  0
   11.1320   -0.5470   23.3320 C   0  0  0  0  0  0  0  0  0  0  0  0
   12.4510   -0.2290   22.2420 Cl  0  0  0  0  0  0  0  0  0  0  0  0
   11.3960   -0.6940   24.6920 C   0  0  0  0  0  0  0  0  0  0  0  0
   10.3400   -0.9580   25.5470 C   0  0  0  0  0  0  0  0  0  0  0  0
    9.0340   -1.0540   25.0660 C   0  0  0  0  0  0  0  0  0  0  0  0
    7.9290   -1.4520   25.9980 C   0  0  0  0  0  0  0  0  0  0  0  0
    8.1370   -1.8920   27.1180 O   0  0  0  0  0  0  0  0  0  0  0  0
   10.5170   -1.1180   26.6040 H   0  0  0  0  0  0  0  0  0  0  0  0
   12.4200   -0.6150   25.0490 H   0  0  0  0  0  0  0  0  0  0  0  0
    9.6780   -0.5370   21.7670 H   0  0  0  0  0  0  0  0  0  0  0  0
    5.3330   -1.0130   23.9570 H   0  0  0  0  0  0  0  0  0  0  0  0
    6.3720    0.3820   24.3920 H   0  0  0  0  0  0  0  0  0  0  0  0
    5.9500   -2.9260   26.7110 H   0  0  0  0  0  0  0  0  0  0  0  0
    4.7340   -2.1140   25.7000 H   0  0  0  0  0  0  0  0  0  0  0  0
    6.0030   -1.1590   28.3000 H   0  0  0  0  0  0  0  0  0  0  0  0
    4.3270   -1.6550   28.0460 H   0  0  0  0  0  0  0  0  0  0  0  0
    5.6560    0.5940   26.7000 H   0  0  0  0  0  0  0  0  0  0  0  0
    4.7080    2.2060   28.1130 H   0  0  0  0  0  0  0  0  0  0  0  0
    3.3810   -0.0940   29.6010 H   0  0  0  0  0  0  0  0  0  0  0  0
    3.2880    1.6340   30.0420 H   0  0  0  0  0  0  0  0  0  0  0  0
    1.4520    0.5170   26.6480 H   0  0  0  0  0  0  0  0  0  0  0  0
    2.2630   -0.7610   27.5960 H   0  0  0  0  0  0  0  0  0  0  0  0
    3.6250   -0.3660   25.6530 H   0  0  0  0  0  0  0  0  0  0  0  0
    4.5490    1.9070   25.1040 H   0  0  0  0  0  0  0  0  0  0  0  0
    2.7850    1.8070   24.9320 H   0  0  0  0  0  0  0  0  0  0  0  0
    3.4720    2.6250   26.3360 H   0  0  0  0  0  0  0  0  0  0  0  0
  1  2  1  0  0  0  0
  1 70  1  0  0  0  0
  1 71  1  0  0  0  0
  1 72  1  0  0  0  0
  2  3  1  0  0  0  0
  2 11  1  0  0  0  0
  2 69  1  6  0  0  0
  3  4  1  0  0  0  0
  3 67  1  0  0  0  0
  3 68  1  0  0  0  0
  4  5  1  0  0  0  0
  5  6  1  0  0  0  0
  5 65  1  0  0  0  0
  5 66  1  0  0  0  0
  6  7  1  0  0  0  0
  6 11  1  0  0  0  0
  6 64  1  6  0  0  0
  7  8  1  0  0  0  0
  7  9  1  0  0  0  0
  7 10  1  0  0  0  0
 11 12  1  0  0  0  0
 11 63  1  6  0  0  0
 12 13  1  0  0  0  0
 12 61  1  0  0  0  0
 12 62  1  0  0  0  0
 13 14  1  0  0  0  0
 13 59  1  0  0  0  0
 13 60  1  0  0  0  0
 14 15  1  0  0  0  0
 14 52  1  0  0  0  0
 15 16  1  0  0  0  0
 15 57  1  0  0  0  0
 15 58  1  0  0  0  0
 16 17  1  6  0  0  0
 16 37  1  0  0  0  0
 16 45  1  0  0  0  0
 17 18  2  0  0  0  0
 17 19  1  0  0  0  0
 19 20  1  0  0  0  0
 19 36  1  0  0  0  0
 20 21  2  0  0  0  0
 20 29  1  0  0  0  0
 21 22  1  0  0  0  0
 21 35  1  0  0  0  0
 22 23  2  0  0  0  0
 23 24  1  0  0  0  0
 23 34  1  0  0  0  0
 24 25  2  0  0  0  0
 24 29  1  0  0  0  0
 25 26  1  0  0  0  0
 25 33  1  0  0  0  0
 26 27  2  0  0  0  0
 26 32  1  0  0  0  0
 27 28  1  0  0  0  0
 27 31  1  0  0  0  0
 28 29  2  0  0  0  0
 28 30  1  0  0  0  0
 36 37  1  0  0  0  0
 36 43  1  0  0  0  0
 36 44  1  0  0  0  0
 37 38  1  0  0  0  0
 37 42  1  6  0  0  0
 38 39  1  0  0  0  0
 38 40  1  0  0  0  0
 38 41  1  0  0  0  0
 45 46  2  0  0  0  0
 45 51  1  0  0  0  0
 46 47  1  0  0  0  0
 46 56  1  0  0  0  0
 47 48  1  0  0  0  0
 47 49  2  0  0  0  0
 49 50  1  0  0  0  0
 49 55  1  0  0  0  0
 50 51  2  0  0  0  0
 50 54  1  0  0  0  0
 51 52  1  0  0  0  0
 52 53  2  0  0  0  0
M  CHG  1  11   1
M  END
>  <MODEL>
       5

$$$$
best_conformers_83.pdb
 OpenBabel02042510453D

 72 77  0  0  1  0  0  0  0  0999 V2000
    2.1180   -1.2490   26.5100 C   0  0  0  0  0  0  0  0  0  0  0  0
    2.5880    0.1250   26.9750 C   0  0  2  0  0  0  0  0  0  0  0  0
    1.7750    1.2270   26.2980 C   0  0  0  0  0  0  0  0  0  0  0  0
    2.2000    2.5250   26.6590 O   0  0  0  0  0  0  0  0  0  0  0  0
    3.5460    2.7200   26.2760 C   0  0  0  0  0  0  0  0  0  0  0  0
    4.4800    1.7810   27.0260 C   0  0  1  0  0  0  0  0  0  0  0  0
    4.4600    2.0900   28.5250 C   0  0  0  0  0  0  0  0  0  0  0  0
    5.1040    1.4050   29.0870 H   0  0  0  0  0  0  0  0  0  0  0  0
    3.4420    2.0320   28.9250 H   0  0  0  0  0  0  0  0  0  0  0  0
    4.8260    3.1110   28.6910 H   0  0  0  0  0  0  0  0  0  0  0  0
    4.0780    0.3470   26.7040 N   0  3  1  0  0  0  0  0  0  0  0  0
    4.9770   -0.6600   27.3530 C   0  0  0  0  0  0  0  0  0  0  0  0
    5.4740   -1.7470   26.3840 C   0  0  0  0  0  0  0  0  0  0  0  0
    6.5700   -1.3400   25.5100 N   0  0  0  0  0  0  0  0  0  0  0  0
    6.2960   -0.6740   24.2550 C   0  0  0  0  0  0  0  0  0  0  0  0
    7.3360   -1.0370   23.1640 C   0  0  2  0  0  0  0  0  0  0  0  0
    7.0800   -0.0860   21.9850 C   0  0  0  0  0  0  0  0  0  0  0  0
    7.3210    1.1040   21.9430 O   0  0  0  0  0  0  0  0  0  0  0  0
    6.4580   -0.7910   20.9760 N   0  0  0  0  0  0  0  0  0  0  0  0
    5.8480   -0.1510   19.8650 C   0  0  0  0  0  0  0  0  0  0  0  0
    6.2570   -0.4560   18.5910 C   0  0  0  0  0  0  0  0  0  0  0  0
    5.7650    0.1160   17.4650 N   0  0  0  0  0  0  0  0  0  0  0  0
    4.8040    0.9990   17.6080 C   0  0  0  0  0  0  0  0  0  0  0  0
    4.2390    1.3690   18.8600 C   0  0  0  0  0  0  0  0  0  0  0  0
    3.1770    2.3130   18.9550 C   0  0  0  0  0  0  0  0  0  0  0  0
    2.6290    2.6260   20.1700 C   0  0  0  0  0  0  0  0  0  0  0  0
    3.1140    1.9990   21.3430 C   0  0  0  0  0  0  0  0  0  0  0  0
    4.1420    1.0920   21.2760 C   0  0  0  0  0  0  0  0  0  0  0  0
    4.7560    0.7680   20.0310 C   0  0  0  0  0  0  0  0  0  0  0  0
    4.5020    0.6210   22.1860 H   0  0  0  0  0  0  0  0  0  0  0  0
    2.6780    2.2500   22.3080 H   0  0  0  0  0  0  0  0  0  0  0  0
    1.8250    3.3550   20.2390 H   0  0  0  0  0  0  0  0  0  0  0  0
    2.8160    2.7810   18.0420 H   0  0  0  0  0  0  0  0  0  0  0  0
    4.4190    1.4620   16.7000 H   0  0  0  0  0  0  0  0  0  0  0  0
    7.0400   -1.1950   18.4310 H   0  0  0  0  0  0  0  0  0  0  0  0
    6.2300   -2.1920   21.2960 C   0  0  0  0  0  0  0  0  0  0  0  0
    7.1210   -2.4510   22.5210 C   0  0  2  0  0  0  0  0  0  0  0  0
    6.5770   -3.5590   23.4320 C   0  0  0  0  0  0  0  0  0  0  0  0
    5.5620   -3.3260   23.7810 H   0  0  0  0  0  0  0  0  0  0  0  0
    7.2030   -3.6850   24.3220 H   0  0  0  0  0  0  0  0  0  0  0  0
    6.5320   -4.5200   22.9040 H   0  0  0  0  0  0  0  0  0  0  0  0
    8.1160   -2.7570   22.1680 H   0  0  0  0  0  0  0  0  0  0  0  0
    6.4980   -2.8220   20.4470 H   0  0  0  0  0  0  0  0  0  0  0  0
    5.1700   -2.3900   21.5210 H   0  0  0  0  0  0  0  0  0  0  0  0
    8.7320   -0.8860   23.7380 C   0  0  0  0  0  0  0  0  0  0  0  0
    9.8240   -0.6990   22.8820 C   0  0  0  0  0  0  0  0  0  0  0  0
   11.1050   -0.6120   23.3990 C   0  0  0  0  0  0  0  0  0  0  0  0
   12.4470   -0.3440   22.3240 Cl  0  0  0  0  0  0  0  0  0  0  0  0
   11.3450   -0.7380   24.7660 C   0  0  0  0  0  0  0  0  0  0  0  0
   10.2680   -0.9590   25.6090 C   0  0  0  0  0  0  0  0  0  0  0  0
    8.9660   -1.0360   25.1090 C   0  0  0  0  0  0  0  0  0  0  0  0
    7.8310   -1.3760   26.0330 C   0  0  0  0  0  0  0  0  0  0  0  0
    8.0030   -1.7100   27.1920 O   0  0  0  0  0  0  0  0  0  0  0  0
   10.4280   -1.0990   26.6710 H   0  0  0  0  0  0  0  0  0  0  0  0
   12.3640   -0.6740   25.1370 H   0  0  0  0  0  0  0  0  0  0  0  0
    9.6770   -0.6000   21.8110 H   0  0  0  0  0  0  0  0  0  0  0  0
    5.2790   -0.9590   23.9500 H   0  0  0  0  0  0  0  0  0  0  0  0
    6.3370    0.4200   24.3840 H   0  0  0  0  0  0  0  0  0  0  0  0
    5.8490   -2.5860   26.9730 H   0  0  0  0  0  0  0  0  0  0  0  0
    4.6430   -2.0930   25.7570 H   0  0  0  0  0  0  0  0  0  0  0  0
    5.8550   -0.1460   27.7550 H   0  0  0  0  0  0  0  0  0  0  0  0
    4.4460   -1.1180   28.1970 H   0  0  0  0  0  0  0  0  0  0  0  0
    4.2320    0.1970   25.6870 H   0  0  0  0  0  0  0  0  0  0  0  0
    5.5020    1.9070   26.6470 H   0  0  0  0  0  0  0  0  0  0  0  0
    3.6650    2.5580   25.1910 H   0  0  0  0  0  0  0  0  0  0  0  0
    3.7810    3.7630   26.5130 H   0  0  0  0  0  0  0  0  0  0  0  0
    1.8350    1.0920   25.2010 H   0  0  0  0  0  0  0  0  0  0  0  0
    0.7250    1.1580   26.6050 H   0  0  0  0  0  0  0  0  0  0  0  0
    2.4280    0.2040   28.0570 H   0  0  0  0  0  0  0  0  0  0  0  0
    2.3280   -1.3930   25.4400 H   0  0  0  0  0  0  0  0  0  0  0  0
    1.0340   -1.3420   26.6520 H   0  0  0  0  0  0  0  0  0  0  0  0
    2.6000   -2.0570   27.0700 H   0  0  0  0  0  0  0  0  0  0  0  0
  1  2  1  0  0  0  0
  1 70  1  0  0  0  0
  1 71  1  0  0  0  0
  1 72  1  0  0  0  0
  2  3  1  0  0  0  0
  2 11  1  0  0  0  0
  2 69  1  1  0  0  0
  3  4  1  0  0  0  0
  3 67  1  0  0  0  0
  3 68  1  0  0  0  0
  4  5  1  0  0  0  0
  5  6  1  0  0  0  0
  5 65  1  0  0  0  0
  5 66  1  0  0  0  0
  6  7  1  0  0  0  0
  6 11  1  0  0  0  0
  6 64  1  6  0  0  0
  7  8  1  0  0  0  0
  7  9  1  0  0  0  0
  7 10  1  0  0  0  0
 11 12  1  0  0  0  0
 11 63  1  6  0  0  0
 12 13  1  0  0  0  0
 12 61  1  0  0  0  0
 12 62  1  0  0  0  0
 13 14  1  0  0  0  0
 13 59  1  0  0  0  0
 13 60  1  0  0  0  0
 14 15  1  0  0  0  0
 14 52  1  0  0  0  0
 15 16  1  0  0  0  0
 15 57  1  0  0  0  0
 15 58  1  0  0  0  0
 16 17  1  6  0  0  0
 16 37  1  0  0  0  0
 16 45  1  0  0  0  0
 17 18  2  0  0  0  0
 17 19  1  0  0  0  0
 19 20  1  0  0  0  0
 19 36  1  0  0  0  0
 20 21  2  0  0  0  0
 20 29  1  0  0  0  0
 21 22  1  0  0  0  0
 21 35  1  0  0  0  0
 22 23  2  0  0  0  0
 23 24  1  0  0  0  0
 23 34  1  0  0  0  0
 24 25  2  0  0  0  0
 24 29  1  0  0  0  0
 25 26  1  0  0  0  0
 25 33  1  0  0  0  0
 26 27  2  0  0  0  0
 26 32  1  0  0  0  0
 27 28  1  0  0  0  0
 27 31  1  0  0  0  0
 28 29  2  0  0  0  0
 28 30  1  0  0  0  0
 36 37  1  0  0  0  0
 36 43  1  0  0  0  0
 36 44  1  0  0  0  0
 37 38  1  0  0  0  0
 37 42  1  6  0  0  0
 38 39  1  0  0  0  0
 38 40  1  0  0  0  0
 38 41  1  0  0  0  0
 45 46  2  0  0  0  0
 45 51  1  0  0  0  0
 46 47  1  0  0  0  0
 46 56  1  0  0  0  0
 47 48  1  0  0  0  0
 47 49  2  0  0  0  0
 49 50  1  0  0  0  0
 49 55  1  0  0  0  0
 50 51  2  0  0  0  0
 50 54  1  0  0  0  0
 51 52  1  0  0  0  0
 52 53  2  0  0  0  0
M  CHG  1  11   1
M  END
>  <MODEL>
       6

$$$$
best_conformers_83.pdb
 OpenBabel02042510453D

 72 77  0  0  1  0  0  0  0  0999 V2000
    5.3910   -2.6560   29.8860 C   0  0  0  0  0  0  0  0  0  0  0  0
    4.2750   -2.7630   28.8530 C   0  0  2  0  0  0  0  0  0  0  0  0
    3.0020   -3.2870   29.5230 C   0  0  0  0  0  0  0  0  0  0  0  0
    1.9630   -3.5510   28.6080 O   0  0  0  0  0  0  0  0  0  0  0  0
    2.3600   -4.5680   27.7160 C   0  0  0  0  0  0  0  0  0  0  0  0
    3.5100   -4.1140   26.8230 C   0  0  1  0  0  0  0  0  0  0  0  0
    3.0410   -3.0200   25.8690 C   0  0  0  0  0  0  0  0  0  0  0  0
    3.7960   -2.8050   25.1030 H   0  0  0  0  0  0  0  0  0  0  0  0
    2.1300   -3.3510   25.3570 H   0  0  0  0  0  0  0  0  0  0  0  0
    2.8070   -2.0990   26.4130 H   0  0  0  0  0  0  0  0  0  0  0  0
    4.6740   -3.6840   27.7090 N   0  3  1  0  0  0  0  0  0  0  0  0
    5.9100   -3.2830   26.9360 C   0  0  0  0  0  0  0  0  0  0  0  0
    6.0520   -1.7870   26.5890 C   0  0  0  0  0  0  0  0  0  0  0  0
    7.0360   -1.5280   25.5320 N   0  0  0  0  0  0  0  0  0  0  0  0
    6.6020   -0.8640   24.3060 C   0  0  0  0  0  0  0  0  0  0  0  0
    7.5110   -1.1410   23.0820 C   0  0  2  0  0  0  0  0  0  0  0  0
    7.1100   -0.1330   21.9850 C   0  0  0  0  0  0  0  0  0  0  0  0
    7.2980    1.0670   21.9960 O   0  0  0  0  0  0  0  0  0  0  0  0
    6.4490   -0.8070   20.9780 N   0  0  0  0  0  0  0  0  0  0  0  0
    5.8450   -0.1570   19.8660 C   0  0  0  0  0  0  0  0  0  0  0  0
    6.2540   -0.4570   18.5890 C   0  0  0  0  0  0  0  0  0  0  0  0
    5.7670    0.1200   17.4620 N   0  0  0  0  0  0  0  0  0  0  0  0
    4.8040    1.0010   17.6060 C   0  0  0  0  0  0  0  0  0  0  0  0
    4.2390    1.3680   18.8580 C   0  0  0  0  0  0  0  0  0  0  0  0
    3.1800    2.3130   18.9530 C   0  0  0  0  0  0  0  0  0  0  0  0
    2.6320    2.6290   20.1680 C   0  0  0  0  0  0  0  0  0  0  0  0
    3.1180    2.0020   21.3430 C   0  0  0  0  0  0  0  0  0  0  0  0
    4.1440    1.0930   21.2710 C   0  0  0  0  0  0  0  0  0  0  0  0
    4.7540    0.7640   20.0290 C   0  0  0  0  0  0  0  0  0  0  0  0
    4.5060    0.6230   22.1790 H   0  0  0  0  0  0  0  0  0  0  0  0
    2.6830    2.2550   22.3040 H   0  0  0  0  0  0  0  0  0  0  0  0
    1.8290    3.3560   20.2420 H   0  0  0  0  0  0  0  0  0  0  0  0
    2.8170    2.7820   18.0410 H   0  0  0  0  0  0  0  0  0  0  0  0
    4.4170    1.4640   16.6990 H   0  0  0  0  0  0  0  0  0  0  0  0
    7.0390   -1.1930   18.4240 H   0  0  0  0  0  0  0  0  0  0  0  0
    6.2840   -2.2260   21.2350 C   0  0  0  0  0  0  0  0  0  0  0  0
    7.2720   -2.5220   22.3750 C   0  0  2  0  0  0  0  0  0  0  0  0
    6.8230   -3.6880   23.2630 C   0  0  0  0  0  0  0  0  0  0  0  0
    5.8270   -3.5030   23.6840 H   0  0  0  0  0  0  0  0  0  0  0  0
    6.7730   -4.6230   22.6890 H   0  0  0  0  0  0  0  0  0  0  0  0
    7.5110   -3.8400   24.1020 H   0  0  0  0  0  0  0  0  0  0  0  0
    8.2420   -2.7830   21.9310 H   0  0  0  0  0  0  0  0  0  0  0  0
    6.4990   -2.7900   20.3270 H   0  0  0  0  0  0  0  0  0  0  0  0
    5.2480   -2.4700   21.5210 H   0  0  0  0  0  0  0  0  0  0  0  0
    8.9590   -0.9740   23.4980 C   0  0  0  0  0  0  0  0  0  0  0  0
    9.9400   -0.6980   22.5400 C   0  0  0  0  0  0  0  0  0  0  0  0
   11.2690   -0.6220   22.9180 C   0  0  0  0  0  0  0  0  0  0  0  0
   12.4920   -0.2490   21.7420 Cl  0  0  0  0  0  0  0  0  0  0  0  0
   11.6670   -0.8460   24.2330 C   0  0  0  0  0  0  0  0  0  0  0  0
   10.7010   -1.1480   25.1740 C   0  0  0  0  0  0  0  0  0  0  0  0
    9.3540   -1.2060   24.8160 C   0  0  0  0  0  0  0  0  0  0  0  0
    8.3600   -1.6120   25.8580 C   0  0  0  0  0  0  0  0  0  0  0  0
    8.7350   -2.0300   26.9440 O   0  0  0  0  0  0  0  0  0  0  0  0
   10.9740   -1.3640   26.1990 H   0  0  0  0  0  0  0  0  0  0  0  0
   12.7190   -0.7880   24.4880 H   0  0  0  0  0  0  0  0  0  0  0  0
    9.6660   -0.5260   21.5050 H   0  0  0  0  0  0  0  0  0  0  0  0
    5.5860   -1.2160   24.0870 H   0  0  0  0  0  0  0  0  0  0  0  0
    6.5760    0.2290   24.4310 H   0  0  0  0  0  0  0  0  0  0  0  0
    5.0930   -1.3830   26.2490 H   0  0  0  0  0  0  0  0  0  0  0  0
    6.3380   -1.2380   27.4920 H   0  0  0  0  0  0  0  0  0  0  0  0
    6.7880   -3.5900   27.5110 H   0  0  0  0  0  0  0  0  0  0  0  0
    5.9030   -3.8600   26.0040 H   0  0  0  0  0  0  0  0  0  0  0  0
    4.9490   -4.5600   28.1990 H   0  0  0  0  0  0  0  0  0  0  0  0
    3.8550   -4.9790   26.2410 H   0  0  0  0  0  0  0  0  0  0  0  0
    1.4760   -4.8100   27.1150 H   0  0  0  0  0  0  0  0  0  0  0  0
    2.6670   -5.4680   28.2780 H   0  0  0  0  0  0  0  0  0  0  0  0
    3.2450   -4.2040   30.0960 H   0  0  0  0  0  0  0  0  0  0  0  0
    2.6150   -2.5330   30.2170 H   0  0  0  0  0  0  0  0  0  0  0  0
    4.0500   -1.7810   28.4290 H   0  0  0  0  0  0  0  0  0  0  0  0
    5.6130   -3.6450   30.3140 H   0  0  0  0  0  0  0  0  0  0  0  0
    5.0880   -1.9930   30.7050 H   0  0  0  0  0  0  0  0  0  0  0  0
    6.3210   -2.2620   29.4630 H   0  0  0  0  0  0  0  0  0  0  0  0
  1  2  1  0  0  0  0
  1 70  1  0  0  0  0
  1 71  1  0  0  0  0
  1 72  1  0  0  0  0
  2  3  1  0  0  0  0
  2 11  1  0  0  0  0
  2 69  1  6  0  0  0
  3  4  1  0  0  0  0
  3 67  1  0  0  0  0
  3 68  1  0  0  0  0
  4  5  1  0  0  0  0
  5  6  1  0  0  0  0
  5 65  1  0  0  0  0
  5 66  1  0  0  0  0
  6  7  1  0  0  0  0
  6 11  1  0  0  0  0
  6 64  1  6  0  0  0
  7  8  1  0  0  0  0
  7  9  1  0  0  0  0
  7 10  1  0  0  0  0
 11 12  1  0  0  0  0
 11 63  1  1  0  0  0
 12 13  1  0  0  0  0
 12 61  1  0  0  0  0
 12 62  1  0  0  0  0
 13 14  1  0  0  0  0
 13 59  1  0  0  0  0
 13 60  1  0  0  0  0
 14 15  1  0  0  0  0
 14 52  1  0  0  0  0
 15 16  1  0  0  0  0
 15 57  1  0  0  0  0
 15 58  1  0  0  0  0
 16 17  1  6  0  0  0
 16 37  1  0  0  0  0
 16 45  1  0  0  0  0
 17 18  2  0  0  0  0
 17 19  1  0  0  0  0
 19 20  1  0  0  0  0
 19 36  1  0  0  0  0
 20 21  2  0  0  0  0
 20 29  1  0  0  0  0
 21 22  1  0  0  0  0
 21 35  1  0  0  0  0
 22 23  2  0  0  0  0
 23 24  1  0  0  0  0
 23 34  1  0  0  0  0
 24 25  2  0  0  0  0
 24 29  1  0  0  0  0
 25 26  1  0  0  0  0
 25 33  1  0  0  0  0
 26 27  2  0  0  0  0
 26 32  1  0  0  0  0
 27 28  1  0  0  0  0
 27 31  1  0  0  0  0
 28 29  2  0  0  0  0
 28 30  1  0  0  0  0
 36 37  1  0  0  0  0
 36 43  1  0  0  0  0
 36 44  1  0  0  0  0
 37 38  1  0  0  0  0
 37 42  1  6  0  0  0
 38 39  1  0  0  0  0
 38 40  1  0  0  0  0
 38 41  1  0  0  0  0
 45 46  2  0  0  0  0
 45 51  1  0  0  0  0
 46 47  1  0  0  0  0
 46 56  1  0  0  0  0
 47 48  1  0  0  0  0
 47 49  2  0  0  0  0
 49 50  1  0  0  0  0
 49 55  1  0  0  0  0
 50 51  2  0  0  0  0
 50 54  1  0  0  0  0
 51 52  1  0  0  0  0
 52 53  2  0  0  0  0
M  CHG  1  11   1
M  END
>  <MODEL>
       7

$$$$
best_conformers_83.pdb
 OpenBabel02042510453D

 72 77  0  0  1  0  0  0  0  0999 V2000
    4.2370   -1.6950   30.8260 C   0  0  0  0  0  0  0  0  0  0  0  0
    5.0070   -0.8520   29.8110 C   0  0  2  0  0  0  0  0  0  0  0  0
    4.6940    0.6370   29.9670 C   0  0  0  0  0  0  0  0  0  0  0  0
    3.3480    0.9270   29.6410 O   0  0  0  0  0  0  0  0  0  0  0  0
    3.0790    0.6310   28.2850 C   0  0  0  0  0  0  0  0  0  0  0  0
    3.2830   -0.8520   27.9900 C   0  0  1  0  0  0  0  0  0  0  0  0
    2.9310   -1.2230   26.5550 C   0  0  0  0  0  0  0  0  0  0  0  0
    3.0900   -2.2940   26.3880 H   0  0  0  0  0  0  0  0  0  0  0  0
    3.5280   -0.6700   25.8200 H   0  0  0  0  0  0  0  0  0  0  0  0
    1.8750   -1.0020   26.3600 H   0  0  0  0  0  0  0  0  0  0  0  0
    4.7150   -1.2710   28.3730 N   0  3  1  0  0  0  0  0  0  0  0  0
    5.7840   -0.8140   27.4070 C   0  0  0  0  0  0  0  0  0  0  0  0
    6.2800   -1.9220   26.4630 C   0  0  0  0  0  0  0  0  0  0  0  0
    7.2370   -1.4370   25.4780 N   0  0  0  0  0  0  0  0  0  0  0  0
    6.7450   -0.7470   24.2980 C   0  0  0  0  0  0  0  0  0  0  0  0
    7.6310   -0.9850   23.0530 C   0  0  2  0  0  0  0  0  0  0  0  0
    7.1470   -0.0210   21.9570 C   0  0  0  0  0  0  0  0  0  0  0  0
    7.2770    1.1880   21.9340 O   0  0  0  0  0  0  0  0  0  0  0  0
    6.4860   -0.7480   20.9870 N   0  0  0  0  0  0  0  0  0  0  0  0
    5.8600   -0.1390   19.8680 C   0  0  0  0  0  0  0  0  0  0  0  0
    6.2620   -0.4520   18.5920 C   0  0  0  0  0  0  0  0  0  0  0  0
    5.7640    0.1130   17.4640 N   0  0  0  0  0  0  0  0  0  0  0  0
    4.8030    0.9960   17.6080 C   0  0  0  0  0  0  0  0  0  0  0  0
    4.2410    1.3680   18.8590 C   0  0  0  0  0  0  0  0  0  0  0  0
    3.1810    2.3120   18.9540 C   0  0  0  0  0  0  0  0  0  0  0  0
    2.6350    2.6290   20.1700 C   0  0  0  0  0  0  0  0  0  0  0  0
    3.1200    2.0040   21.3430 C   0  0  0  0  0  0  0  0  0  0  0  0
    4.1470    1.0940   21.2720 C   0  0  0  0  0  0  0  0  0  0  0  0
    4.7620    0.7710   20.0310 C   0  0  0  0  0  0  0  0  0  0  0  0
    4.5070    0.6260   22.1820 H   0  0  0  0  0  0  0  0  0  0  0  0
    2.6870    2.2600   22.3060 H   0  0  0  0  0  0  0  0  0  0  0  0
    1.8330    3.3610   20.2420 H   0  0  0  0  0  0  0  0  0  0  0  0
    2.8200    2.7810   18.0410 H   0  0  0  0  0  0  0  0  0  0  0  0
    4.4160    1.4590   16.7010 H   0  0  0  0  0  0  0  0  0  0  0  0
    7.0460   -1.1900   18.4250 H   0  0  0  0  0  0  0  0  0  0  0  0
    6.4080   -2.1690   21.2700 C   0  0  0  0  0  0  0  0  0  0  0  0
    7.4420   -2.3950   22.3860 C   0  0  2  0  0  0  0  0  0  0  0  0
    7.0750   -3.5650   23.3100 C   0  0  0  0  0  0  0  0  0  0  0  0
    7.8000   -3.6730   24.1240 H   0  0  0  0  0  0  0  0  0  0  0  0
    7.0370   -4.5100   22.7530 H   0  0  0  0  0  0  0  0  0  0  0  0
    6.0900   -3.4130   23.7710 H   0  0  0  0  0  0  0  0  0  0  0  0
    8.4130   -2.6180   21.9210 H   0  0  0  0  0  0  0  0  0  0  0  0
    6.6310   -2.7310   20.3640 H   0  0  0  0  0  0  0  0  0  0  0  0
    5.3950   -2.4660   21.5880 H   0  0  0  0  0  0  0  0  0  0  0  0
    9.0760   -0.7290   23.4370 C   0  0  0  0  0  0  0  0  0  0  0  0
   10.0250   -0.4150   22.4570 C   0  0  0  0  0  0  0  0  0  0  0  0
   11.3500   -0.2380   22.8230 C   0  0  0  0  0  0  0  0  0  0  0  0
   12.5660    0.1920   21.6610 Cl  0  0  0  0  0  0  0  0  0  0  0  0
   11.7720   -0.3950   24.1390 C   0  0  0  0  0  0  0  0  0  0  0  0
   10.8450   -0.7370   25.1010 C   0  0  0  0  0  0  0  0  0  0  0  0
    9.5050   -0.9040   24.7560 C   0  0  0  0  0  0  0  0  0  0  0  0
    8.5640   -1.3780   25.8150 C   0  0  0  0  0  0  0  0  0  0  0  0
    8.9800   -1.7260   26.9060 O   0  0  0  0  0  0  0  0  0  0  0  0
   11.1460   -0.9050   26.1280 H   0  0  0  0  0  0  0  0  0  0  0  0
   12.8230   -0.2550   24.3670 H   0  0  0  0  0  0  0  0  0  0  0  0
    9.7210   -0.2930   21.4240 H   0  0  0  0  0  0  0  0  0  0  0  0
    6.7190    0.3430   24.4560 H   0  0  0  0  0  0  0  0  0  0  0  0
    5.7260   -1.1040   24.1070 H   0  0  0  0  0  0  0  0  0  0  0  0
    5.4270   -2.3620   25.9270 H   0  0  0  0  0  0  0  0  0  0  0  0
    6.7750   -2.7070   27.0430 H   0  0  0  0  0  0  0  0  0  0  0  0
    5.4030    0.0260   26.8140 H   0  0  0  0  0  0  0  0  0  0  0  0
    6.6400   -0.4730   28.0030 H   0  0  0  0  0  0  0  0  0  0  0  0
    4.7430   -2.3080   28.3610 H   0  0  0  0  0  0  0  0  0  0  0  0
    2.6180   -1.4020   28.6620 H   0  0  0  0  0  0  0  0  0  0  0  0
    2.0320    0.9080   28.1160 H   0  0  0  0  0  0  0  0  0  0  0  0
    3.7140    1.2320   27.6110 H   0  0  0  0  0  0  0  0  0  0  0  0
    5.3820    1.2100   29.3240 H   0  0  0  0  0  0  0  0  0  0  0  0
    4.8280    0.9550   31.0070 H   0  0  0  0  0  0  0  0  0  0  0  0
    6.0830   -1.0110   29.9660 H   0  0  0  0  0  0  0  0  0  0  0  0
    4.4110   -2.7640   30.6490 H   0  0  0  0  0  0  0  0  0  0  0  0
    4.5820   -1.4570   31.8400 H   0  0  0  0  0  0  0  0  0  0  0  0
    3.1610   -1.4920   30.7920 H   0  0  0  0  0  0  0  0  0  0  0  0
  1  2  1  0  0  0  0
  1 70  1  0  0  0  0
  1 71  1  0  0  0  0
  1 72  1  0  0  0  0
  2  3  1  0  0  0  0
  2 11  1  0  0  0  0
  2 69  1  1  0  0  0
  3  4  1  0  0  0  0
  3 67  1  0  0  0  0
  3 68  1  0  0  0  0
  4  5  1  0  0  0  0
  5  6  1  0  0  0  0
  5 65  1  0  0  0  0
  5 66  1  0  0  0  0
  6  7  1  0  0  0  0
  6 11  1  0  0  0  0
  6 64  1  1  0  0  0
  7  8  1  0  0  0  0
  7  9  1  0  0  0  0
  7 10  1  0  0  0  0
 11 12  1  0  0  0  0
 11 63  1  6  0  0  0
 12 13  1  0  0  0  0
 12 61  1  0  0  0  0
 12 62  1  0  0  0  0
 13 14  1  0  0  0  0
 13 59  1  0  0  0  0
 13 60  1  0  0  0  0
 14 15  1  0  0  0  0
 14 52  1  0  0  0  0
 15 16  1  0  0  0  0
 15 57  1  0  0  0  0
 15 58  1  0  0  0  0
 16 17  1  6  0  0  0
 16 37  1  0  0  0  0
 16 45  1  0  0  0  0
 17 18  2  0  0  0  0
 17 19  1  0  0  0  0
 19 20  1  0  0  0  0
 19 36  1  0  0  0  0
 20 21  2  0  0  0  0
 20 29  1  0  0  0  0
 21 22  1  0  0  0  0
 21 35  1  0  0  0  0
 22 23  2  0  0  0  0
 23 24  1  0  0  0  0
 23 34  1  0  0  0  0
 24 25  2  0  0  0  0
 24 29  1  0  0  0  0
 25 26  1  0  0  0  0
 25 33  1  0  0  0  0
 26 27  2  0  0  0  0
 26 32  1  0  0  0  0
 27 28  1  0  0  0  0
 27 31  1  0  0  0  0
 28 29  2  0  0  0  0
 28 30  1  0  0  0  0
 36 37  1  0  0  0  0
 36 43  1  0  0  0  0
 36 44  1  0  0  0  0
 37 38  1  0  0  0  0
 37 42  1  6  0  0  0
 38 39  1  0  0  0  0
 38 40  1  0  0  0  0
 38 41  1  0  0  0  0
 45 46  2  0  0  0  0
 45 51  1  0  0  0  0
 46 47  1  0  0  0  0
 46 56  1  0  0  0  0
 47 48  1  0  0  0  0
 47 49  2  0  0  0  0
 49 50  1  0  0  0  0
 49 55  1  0  0  0  0
 50 51  2  0  0  0  0
 50 54  1  0  0  0  0
 51 52  1  0  0  0  0
 52 53  2  0  0  0  0
M  CHG  1  11   1
M  END
>  <MODEL>
       8

$$$$
best_conformers_83.pdb
 OpenBabel02042510453D

 72 77  0  0  1  0  0  0  0  0999 V2000
    4.4430    2.3760   26.5450 C   0  0  0  0  0  0  0  0  0  0  0  0
    4.9140    1.8280   27.8800 C   0  0  2  0  0  0  0  0  0  0  0  0
    5.7160    2.8920   28.6200 C   0  0  0  0  0  0  0  0  0  0  0  0
    6.1730    2.4190   29.8690 O   0  0  0  0  0  0  0  0  0  0  0  0
    7.0850    1.3650   29.6480 C   0  0  0  0  0  0  0  0  0  0  0  0
    6.4430    0.1380   28.9830 C   0  0  1  0  0  0  0  0  0  0  0  0
    5.5720   -0.6480   29.9660 C   0  0  0  0  0  0  0  0  0  0  0  0
    6.1870   -0.9090   30.8390 H   0  0  0  0  0  0  0  0  0  0  0  0
    4.7120   -0.0690   30.3190 H   0  0  0  0  0  0  0  0  0  0  0  0
    5.2300   -1.5890   29.5220 H   0  0  0  0  0  0  0  0  0  0  0  0
    5.7700    0.5770   27.6930 N   0  3  1  0  0  0  0  0  0  0  0  0
    5.0960   -0.5590   26.9720 C   0  0  0  0  0  0  0  0  0  0  0  0
    6.0660   -1.6350   26.4900 C   0  0  0  0  0  0  0  0  0  0  0  0
    7.0800   -1.1290   25.5690 N   0  0  0  0  0  0  0  0  0  0  0  0
    6.6420   -0.6450   24.2590 C   0  0  0  0  0  0  0  0  0  0  0  0
    7.5280   -1.0930   23.0500 C   0  0  2  0  0  0  0  0  0  0  0  0
    7.1510   -0.1280   21.9230 C   0  0  0  0  0  0  0  0  0  0  0  0
    7.3820    1.0690   21.8820 O   0  0  0  0  0  0  0  0  0  0  0  0
    6.4360   -0.8120   20.9720 N   0  0  0  0  0  0  0  0  0  0  0  0
    5.8380   -0.1650   19.8730 C   0  0  0  0  0  0  0  0  0  0  0  0
    6.2780   -0.4650   18.6110 C   0  0  0  0  0  0  0  0  0  0  0  0
    5.8110    0.0980   17.4720 N   0  0  0  0  0  0  0  0  0  0  0  0
    4.8410    0.9750   17.6130 C   0  0  0  0  0  0  0  0  0  0  0  0
    4.2740    1.3500   18.8650 C   0  0  0  0  0  0  0  0  0  0  0  0
    3.2210    2.2960   18.9410 C   0  0  0  0  0  0  0  0  0  0  0  0
    2.6630    2.6140   20.1480 C   0  0  0  0  0  0  0  0  0  0  0  0
    3.1300    2.0080   21.3360 C   0  0  0  0  0  0  0  0  0  0  0  0
    4.1570    1.1030   21.2950 C   0  0  0  0  0  0  0  0  0  0  0  0
    4.7650    0.7600   20.0490 C   0  0  0  0  0  0  0  0  0  0  0  0
    4.5080    0.6550   22.2220 H   0  0  0  0  0  0  0  0  0  0  0  0
    2.6640    2.2650   22.2830 H   0  0  0  0  0  0  0  0  0  0  0  0
    1.8540    3.3340   20.1980 H   0  0  0  0  0  0  0  0  0  0  0  0
    2.8700    2.7490   18.0170 H   0  0  0  0  0  0  0  0  0  0  0  0
    4.4410    1.4290   16.7060 H   0  0  0  0  0  0  0  0  0  0  0  0
    7.0830   -1.1900   18.5050 H   0  0  0  0  0  0  0  0  0  0  0  0
    6.1760   -2.1990   21.2940 C   0  0  0  0  0  0  0  0  0  0  0  0
    7.1960   -2.4940   22.4010 C   0  0  2  0  0  0  0  0  0  0  0  0
    6.7310   -3.5940   23.3420 C   0  0  0  0  0  0  0  0  0  0  0  0
    7.4530   -3.7580   24.1460 H   0  0  0  0  0  0  0  0  0  0  0  0
    6.6050   -4.5300   22.7880 H   0  0  0  0  0  0  0  0  0  0  0  0
    5.7640   -3.3330   23.7890 H   0  0  0  0  0  0  0  0  0  0  0  0
    8.1220   -2.8200   21.9050 H   0  0  0  0  0  0  0  0  0  0  0  0
    6.3110   -2.8220   20.4050 H   0  0  0  0  0  0  0  0  0  0  0  0
    5.1390   -2.3380   21.6370 H   0  0  0  0  0  0  0  0  0  0  0  0
    8.9880   -0.9660   23.4370 C   0  0  0  0  0  0  0  0  0  0  0  0
    9.9810   -0.7340   22.4760 C   0  0  0  0  0  0  0  0  0  0  0  0
   11.3150   -0.7040   22.8520 C   0  0  0  0  0  0  0  0  0  0  0  0
   12.5490   -0.4240   21.6620 Cl  0  0  0  0  0  0  0  0  0  0  0  0
   11.7050   -0.9160   24.1750 C   0  0  0  0  0  0  0  0  0  0  0  0
   10.7270   -1.1740   25.1150 C   0  0  0  0  0  0  0  0  0  0  0  0
    9.3820   -1.1820   24.7570 C   0  0  0  0  0  0  0  0  0  0  0  0
    8.3790   -1.4900   25.8190 C   0  0  0  0  0  0  0  0  0  0  0  0
    8.7280   -2.0320   26.8570 O   0  0  0  0  0  0  0  0  0  0  0  0
   10.9690   -1.3720   26.1540 H   0  0  0  0  0  0  0  0  0  0  0  0
   12.7520   -0.8870   24.4580 H   0  0  0  0  0  0  0  0  0  0  0  0
    9.7080   -0.5690   21.4390 H   0  0  0  0  0  0  0  0  0  0  0  0
    5.6040   -0.9540   24.0720 H   0  0  0  0  0  0  0  0  0  0  0  0
    6.6320    0.4550   24.2560 H   0  0  0  0  0  0  0  0  0  0  0  0
    6.6000   -2.0860   27.3240 H   0  0  0  0  0  0  0  0  0  0  0  0
    5.5070   -2.4420   25.9960 H   0  0  0  0  0  0  0  0  0  0  0  0
    4.5690   -0.1540   26.1060 H   0  0  0  0  0  0  0  0  0  0  0  0
    4.3430   -1.0150   27.6200 H   0  0  0  0  0  0  0  0  0  0  0  0
    6.5520    0.8540   27.0570 H   0  0  0  0  0  0  0  0  0  0  0  0
    7.2370   -0.5380   28.6500 H   0  0  0  0  0  0  0  0  0  0  0  0
    7.9150    1.7290   29.0150 H   0  0  0  0  0  0  0  0  0  0  0  0
    7.4950    1.0790   30.6250 H   0  0  0  0  0  0  0  0  0  0  0  0
    5.0720    3.7610   28.8010 H   0  0  0  0  0  0  0  0  0  0  0  0
    6.5800    3.2230   28.0130 H   0  0  0  0  0  0  0  0  0  0  0  0
    4.0650    1.5510   28.5190 H   0  0  0  0  0  0  0  0  0  0  0  0
    5.2960    2.4300   25.8560 H   0  0  0  0  0  0  0  0  0  0  0  0
    4.0470    3.3860   26.6700 H   0  0  0  0  0  0  0  0  0  0  0  0
    3.6550    1.7710   26.0940 H   0  0  0  0  0  0  0  0  0  0  0  0
  1  2  1  0  0  0  0
  1 70  1  0  0  0  0
  1 71  1  0  0  0  0
  1 72  1  0  0  0  0
  2  3  1  0  0  0  0
  2 11  1  0  0  0  0
  2 69  1  1  0  0  0
  3  4  1  0  0  0  0
  3 67  1  0  0  0  0
  3 68  1  0  0  0  0
  4  5  1  0  0  0  0
  5  6  1  0  0  0  0
  5 65  1  0  0  0  0
  5 66  1  0  0  0  0
  6  7  1  0  0  0  0
  6 11  1  0  0  0  0
  6 64  1  6  0  0  0
  7  8  1  0  0  0  0
  7  9  1  0  0  0  0
  7 10  1  0  0  0  0
 11 12  1  0  0  0  0
 11 63  1  6  0  0  0
 12 13  1  0  0  0  0
 12 61  1  0  0  0  0
 12 62  1  0  0  0  0
 13 14  1  0  0  0  0
 13 59  1  0  0  0  0
 13 60  1  0  0  0  0
 14 15  1  0  0  0  0
 14 52  1  0  0  0  0
 15 16  1  0  0  0  0
 15 57  1  0  0  0  0
 15 58  1  0  0  0  0
 16 17  1  6  0  0  0
 16 37  1  0  0  0  0
 16 45  1  0  0  0  0
 17 18  2  0  0  0  0
 17 19  1  0  0  0  0
 19 20  1  0  0  0  0
 19 36  1  0  0  0  0
 20 21  2  0  0  0  0
 20 29  1  0  0  0  0
 21 22  1  0  0  0  0
 21 35  1  0  0  0  0
 22 23  2  0  0  0  0
 23 24  1  0  0  0  0
 23 34  1  0  0  0  0
 24 25  2  0  0  0  0
 24 29  1  0  0  0  0
 25 26  1  0  0  0  0
 25 33  1  0  0  0  0
 26 27  2  0  0  0  0
 26 32  1  0  0  0  0
 27 28  1  0  0  0  0
 27 31  1  0  0  0  0
 28 29  2  0  0  0  0
 28 30  1  0  0  0  0
 36 37  1  0  0  0  0
 36 43  1  0  0  0  0
 36 44  1  0  0  0  0
 37 38  1  0  0  0  0
 37 42  1  6  0  0  0
 38 39  1  0  0  0  0
 38 40  1  0  0  0  0
 38 41  1  0  0  0  0
 45 46  2  0  0  0  0
 45 51  1  0  0  0  0
 46 47  1  0  0  0  0
 46 56  1  0  0  0  0
 47 48  1  0  0  0  0
 47 49  2  0  0  0  0
 49 50  1  0  0  0  0
 49 55  1  0  0  0  0
 50 51  2  0  0  0  0
 50 54  1  0  0  0  0
 51 52  1  0  0  0  0
 52 53  2  0  0  0  0
M  CHG  1  11   1
M  END
>  <MODEL>
       9

$$$$
best_conformers_83.pdb
 OpenBabel02042510453D

 72 77  0  0  1  0  0  0  0  0999 V2000
    5.2760    0.5290   30.0330 C   0  0  0  0  0  0  0  0  0  0  0  0
    4.0590   -0.1180   29.3770 C   0  0  2  0  0  0  0  0  0  0  0  0
    3.0880   -0.6120   30.4480 C   0  0  0  0  0  0  0  0  0  0  0  0
    1.9630   -1.2610   29.9020 O   0  0  0  0  0  0  0  0  0  0  0  0
    2.3750   -2.4040   29.1860 C   0  0  0  0  0  0  0  0  0  0  0  0
    3.2310   -2.0470   27.9720 C   0  0  1  0  0  0  0  0  0  0  0  0
    2.4070   -1.2840   26.9360 C   0  0  0  0  0  0  0  0  0  0  0  0
    1.5110   -1.8620   26.6760 H   0  0  0  0  0  0  0  0  0  0  0  0
    2.0740   -0.3210   27.3380 H   0  0  0  0  0  0  0  0  0  0  0  0
    2.9770   -1.1060   26.0180 H   0  0  0  0  0  0  0  0  0  0  0  0
    4.4540   -1.2600   28.4480 N   0  3  1  0  0  0  0  0  0  0  0  0
    5.3790   -0.8070   27.3490 C   0  0  0  0  0  0  0  0  0  0  0  0
    5.8740   -1.9400   26.4380 C   0  0  0  0  0  0  0  0  0  0  0  0
    6.9050   -1.5110   25.4960 N   0  0  0  0  0  0  0  0  0  0  0  0
    6.5180   -0.7970   24.2930 C   0  0  0  0  0  0  0  0  0  0  0  0
    7.4660   -1.0870   23.1020 C   0  0  2  0  0  0  0  0  0  0  0  0
    7.0990   -0.1010   21.9810 C   0  0  0  0  0  0  0  0  0  0  0  0
    7.2910    1.1000   21.9730 O   0  0  0  0  0  0  0  0  0  0  0  0
    6.4560   -0.7930   20.9770 N   0  0  0  0  0  0  0  0  0  0  0  0
    5.8490   -0.1520   19.8660 C   0  0  0  0  0  0  0  0  0  0  0  0
    6.2580   -0.4570   18.5920 C   0  0  0  0  0  0  0  0  0  0  0  0
    5.7680    0.1170   17.4650 N   0  0  0  0  0  0  0  0  0  0  0  0
    4.8060    0.9980   17.6080 C   0  0  0  0  0  0  0  0  0  0  0  0
    4.2390    1.3660   18.8600 C   0  0  0  0  0  0  0  0  0  0  0  0
    3.1770    2.3100   18.9540 C   0  0  0  0  0  0  0  0  0  0  0  0
    2.6280    2.6230   20.1670 C   0  0  0  0  0  0  0  0  0  0  0  0
    3.1110    1.9960   21.3410 C   0  0  0  0  0  0  0  0  0  0  0  0
    4.1390    1.0900   21.2720 C   0  0  0  0  0  0  0  0  0  0  0  0
    4.7550    0.7650   20.0300 C   0  0  0  0  0  0  0  0  0  0  0  0
    4.5000    0.6200   22.1820 H   0  0  0  0  0  0  0  0  0  0  0  0
    2.6730    2.2490   22.3030 H   0  0  0  0  0  0  0  0  0  0  0  0
    1.8220    3.3510   20.2390 H   0  0  0  0  0  0  0  0  0  0  0  0
    2.8180    2.7790   18.0400 H   0  0  0  0  0  0  0  0  0  0  0  0
    4.4200    1.4600   16.7010 H   0  0  0  0  0  0  0  0  0  0  0  0
    7.0420   -1.1950   18.4270 H   0  0  0  0  0  0  0  0  0  0  0  0
    6.2820   -2.2080   21.2580 C   0  0  0  0  0  0  0  0  0  0  0  0
    7.2430   -2.4860   22.4240 C   0  0  2  0  0  0  0  0  0  0  0  0
    6.7730   -3.6370   23.3220 C   0  0  0  0  0  0  0  0  0  0  0  0
    5.7770   -3.4370   23.7360 H   0  0  0  0  0  0  0  0  0  0  0  0
    7.4500   -3.7830   24.1710 H   0  0  0  0  0  0  0  0  0  0  0  0
    6.7140   -4.5790   22.7610 H   0  0  0  0  0  0  0  0  0  0  0  0
    8.2260   -2.7540   22.0100 H   0  0  0  0  0  0  0  0  0  0  0  0
    5.2400   -2.4440   21.5270 H   0  0  0  0  0  0  0  0  0  0  0  0
    6.5160   -2.7920   20.3690 H   0  0  0  0  0  0  0  0  0  0  0  0
    8.8970   -0.9100   23.5690 C   0  0  0  0  0  0  0  0  0  0  0  0
    9.9140   -0.6530   22.6430 C   0  0  0  0  0  0  0  0  0  0  0  0
   11.2270   -0.5530   23.0710 C   0  0  0  0  0  0  0  0  0  0  0  0
   12.4790   -0.2000   21.9190 Cl  0  0  0  0  0  0  0  0  0  0  0  0
   11.5750   -0.7310   24.4080 C   0  0  0  0  0  0  0  0  0  0  0  0
   10.5720   -1.0190   25.3160 C   0  0  0  0  0  0  0  0  0  0  0  0
    9.2420   -1.1110   24.9060 C   0  0  0  0  0  0  0  0  0  0  0  0
    8.2080   -1.5460   25.8990 C   0  0  0  0  0  0  0  0  0  0  0  0
    8.5210   -1.9550   27.0040 O   0  0  0  0  0  0  0  0  0  0  0  0
   10.8060   -1.2060   26.3570 H   0  0  0  0  0  0  0  0  0  0  0  0
   12.6170   -0.6550   24.7040 H   0  0  0  0  0  0  0  0  0  0  0  0
    9.6810   -0.5140   21.5940 H   0  0  0  0  0  0  0  0  0  0  0  0
    6.5440    0.2920   24.4560 H   0  0  0  0  0  0  0  0  0  0  0  0
    5.4920   -1.0990   24.0500 H   0  0  0  0  0  0  0  0  0  0  0  0
    5.0380   -2.3500   25.8550 H   0  0  0  0  0  0  0  0  0  0  0  0
    6.3040   -2.7400   27.0490 H   0  0  0  0  0  0  0  0  0  0  0  0
    4.8650   -0.0480   26.7450 H   0  0  0  0  0  0  0  0  0  0  0  0
    6.2500   -0.3390   27.8180 H   0  0  0  0  0  0  0  0  0  0  0  0
    5.0150   -1.9040   29.0450 H   0  0  0  0  0  0  0  0  0  0  0  0
    3.5980   -2.9830   27.5380 H   0  0  0  0  0  0  0  0  0  0  0  0
    1.4550   -2.9110   28.8730 H   0  0  0  0  0  0  0  0  0  0  0  0
    2.9490   -3.0760   29.8450 H   0  0  0  0  0  0  0  0  0  0  0  0
    3.6300   -1.2880   31.1370 H   0  0  0  0  0  0  0  0  0  0  0  0
    2.7000    0.2400   31.0170 H   0  0  0  0  0  0  0  0  0  0  0  0
    3.5350    0.6310   28.7720 H   0  0  0  0  0  0  0  0  0  0  0  0
    5.8560    1.1290   29.3240 H   0  0  0  0  0  0  0  0  0  0  0  0
    4.9550    1.1930   30.8440 H   0  0  0  0  0  0  0  0  0  0  0  0
    5.9380   -0.2350   30.4650 H   0  0  0  0  0  0  0  0  0  0  0  0
  1  2  1  0  0  0  0
  1 70  1  0  0  0  0
  1 71  1  0  0  0  0
  1 72  1  0  0  0  0
  2  3  1  0  0  0  0
  2 11  1  0  0  0  0
  2 69  1  6  0  0  0
  3  4  1  0  0  0  0
  3 67  1  0  0  0  0
  3 68  1  0  0  0  0
  4  5  1  0  0  0  0
  5  6  1  0  0  0  0
  5 65  1  0  0  0  0
  5 66  1  0  0  0  0
  6  7  1  0  0  0  0
  6 11  1  0  0  0  0
  6 64  1  6  0  0  0
  7  8  1  0  0  0  0
  7  9  1  0  0  0  0
  7 10  1  0  0  0  0
 11 12  1  0  0  0  0
 11 63  1  1  0  0  0
 12 13  1  0  0  0  0
 12 61  1  0  0  0  0
 12 62  1  0  0  0  0
 13 14  1  0  0  0  0
 13 59  1  0  0  0  0
 13 60  1  0  0  0  0
 14 15  1  0  0  0  0
 14 52  1  0  0  0  0
 15 16  1  0  0  0  0
 15 57  1  0  0  0  0
 15 58  1  0  0  0  0
 16 17  1  6  0  0  0
 16 37  1  0  0  0  0
 16 45  1  0  0  0  0
 17 18  2  0  0  0  0
 17 19  1  0  0  0  0
 19 20  1  0  0  0  0
 19 36  1  0  0  0  0
 20 21  2  0  0  0  0
 20 29  1  0  0  0  0
 21 22  1  0  0  0  0
 21 35  1  0  0  0  0
 22 23  2  0  0  0  0
 23 24  1  0  0  0  0
 23 34  1  0  0  0  0
 24 25  2  0  0  0  0
 24 29  1  0  0  0  0
 25 26  1  0  0  0  0
 25 33  1  0  0  0  0
 26 27  2  0  0  0  0
 26 32  1  0  0  0  0
 27 28  1  0  0  0  0
 27 31  1  0  0  0  0
 28 29  2  0  0  0  0
 28 30  1  0  0  0  0
 36 37  1  0  0  0  0
 36 43  1  0  0  0  0
 36 44  1  0  0  0  0
 37 38  1  0  0  0  0
 37 42  1  6  0  0  0
 38 39  1  0  0  0  0
 38 40  1  0  0  0  0
 38 41  1  0  0  0  0
 45 46  2  0  0  0  0
 45 51  1  0  0  0  0
 46 47  1  0  0  0  0
 46 56  1  0  0  0  0
 47 48  1  0  0  0  0
 47 49  2  0  0  0  0
 49 50  1  0  0  0  0
 49 55  1  0  0  0  0
 50 51  2  0  0  0  0
 50 54  1  0  0  0  0
 51 52  1  0  0  0  0
 52 53  2  0  0  0  0
M  CHG  1  11   1
M  END
>  <MODEL>
      10

$$$$
