best_conformers_26.pdb
 OpenBabel02042510453D

 43 47  0  0  1  0  0  0  0  0999 V2000
    8.2950    0.5410   21.2740 O   0  0  0  0  0  0  0  0  0  0  0  0
    7.5320   -0.3030   21.6810 C   0  0  0  0  0  0  0  0  0  0  0  0
    7.5780   -0.9670   22.8760 N   0  0  0  0  0  0  0  0  0  0  0  0
    6.4990   -1.8940   23.0960 C   0  0  1  0  0  0  0  0  0  0  0  0
    6.9000   -3.3240   23.5520 C   0  0  0  0  0  0  0  0  0  0  0  0
    6.1790   -3.1110   24.9200 C   0  0  2  0  0  0  0  0  0  0  0  0
    5.1150   -4.1090   25.2720 C   0  0  0  0  0  0  0  0  0  0  0  0
    4.1080   -4.4140   24.3520 C   0  0  0  0  0  0  0  0  0  0  0  0
    3.1070   -5.3290   24.6520 C   0  0  0  0  0  0  0  0  0  0  0  0
    3.0940   -5.9710   25.8890 C   0  0  0  0  0  0  0  0  0  0  0  0
    4.0850   -5.6890   26.8210 C   0  0  0  0  0  0  0  0  0  0  0  0
    5.0740   -4.7630   26.5060 C   0  0  0  0  0  0  0  0  0  0  0  0
    6.2760   -4.4260   27.7290 Cl  0  0  0  0  0  0  0  0  0  0  0  0
    4.1010   -6.1720   27.7940 H   0  0  0  0  0  0  0  0  0  0  0  0
    2.3150   -6.6890   26.1290 H   0  0  0  0  0  0  0  0  0  0  0  0
    2.3360   -5.5390   23.9180 H   0  0  0  0  0  0  0  0  0  0  0  0
    4.1240   -3.9120   23.3850 H   0  0  0  0  0  0  0  0  0  0  0  0
    5.6810   -1.7240   24.4080 C   0  0  0  0  0  0  0  0  0  0  0  0
    4.5980   -1.6770   24.2470 H   0  0  0  0  0  0  0  0  0  0  0  0
    5.9780   -0.8580   25.0090 H   0  0  0  0  0  0  0  0  0  0  0  0
    6.8890   -3.0080   25.7450 H   0  0  0  0  0  0  0  0  0  0  0  0
    6.4750   -4.1210   22.9320 H   0  0  0  0  0  0  0  0  0  0  0  0
    7.9820   -3.4760   23.6110 H   0  0  0  0  0  0  0  0  0  0  0  0
    5.7300   -1.7670   21.7910 C   0  0  0  0  0  0  0  0  0  0  0  0
    4.7250   -2.3610   21.4780 O   0  0  0  0  0  0  0  0  0  0  0  0
    6.3930   -0.8080   21.0110 N   0  0  0  0  0  0  0  0  0  0  0  0
    5.8110   -0.1700   19.8740 C   0  0  0  0  0  0  0  0  0  0  0  0
    6.2620   -0.4600   18.6160 C   0  0  0  0  0  0  0  0  0  0  0  0
    5.7770    0.1170   17.4870 N   0  0  0  0  0  0  0  0  0  0  0  0
    4.8090    0.9910   17.6160 C   0  0  0  0  0  0  0  0  0  0  0  0
    4.2330    1.3690   18.8580 C   0  0  0  0  0  0  0  0  0  0  0  0
    3.1820    2.3210   18.9540 C   0  0  0  0  0  0  0  0  0  0  0  0
    2.6610    2.6580   20.1700 C   0  0  0  0  0  0  0  0  0  0  0  0
    3.1720    2.0640   21.3490 C   0  0  0  0  0  0  0  0  0  0  0  0
    4.1910    1.1500   21.2790 C   0  0  0  0  0  0  0  0  0  0  0  0
    4.7440    0.7720   20.0290 C   0  0  0  0  0  0  0  0  0  0  0  0
    4.5890    0.7100   22.1870 H   0  0  0  0  0  0  0  0  0  0  0  0
    2.7600    2.3380   22.3140 H   0  0  0  0  0  0  0  0  0  0  0  0
    1.8590    3.3900   20.2490 H   0  0  0  0  0  0  0  0  0  0  0  0
    2.8120    2.7780   18.0400 H   0  0  0  0  0  0  0  0  0  0  0  0
    4.4250    1.4520   16.7060 H   0  0  0  0  0  0  0  0  0  0  0  0
    7.0500   -1.1930   18.4630 H   0  0  0  0  0  0  0  0  0  0  0  0
    8.2660   -0.7410   23.5760 H   0  0  0  0  0  0  0  0  0  0  0  0
  1  2  2  0  0  0  0
  2  3  1  0  0  0  0
  2 26  1  0  0  0  0
  3  4  1  0  0  0  0
  3 43  1  0  0  0  0
  4  5  1  0  0  0  0
  4 18  1  0  0  0  0
  4 24  1  6  0  0  0
  5  6  1  0  0  0  0
  5 22  1  0  0  0  0
  5 23  1  0  0  0  0
  6  7  1  0  0  0  0
  6 18  1  0  0  0  0
  6 21  1  1  0  0  0
  7  8  2  0  0  0  0
  7 12  1  0  0  0  0
  8  9  1  0  0  0  0
  8 17  1  0  0  0  0
  9 10  2  0  0  0  0
  9 16  1  0  0  0  0
 10 11  1  0  0  0  0
 10 15  1  0  0  0  0
 11 12  2  0  0  0  0
 11 14  1  0  0  0  0
 12 13  1  0  0  0  0
 18 19  1  0  0  0  0
 18 20  1  0  0  0  0
 24 25  2  0  0  0  0
 24 26  1  0  0  0  0
 26 27  1  0  0  0  0
 27 28  2  0  0  0  0
 27 36  1  0  0  0  0
 28 29  1  0  0  0  0
 28 42  1  0  0  0  0
 29 30  2  0  0  0  0
 30 31  1  0  0  0  0
 30 41  1  0  0  0  0
 31 32  2  0  0  0  0
 31 36  1  0  0  0  0
 32 33  1  0  0  0  0
 32 40  1  0  0  0  0
 33 34  2  0  0  0  0
 33 39  1  0  0  0  0
 34 35  1  0  0  0  0
 34 38  1  0  0  0  0
 35 36  2  0  0  0  0
 35 37  1  0  0  0  0
M  END
>  <MODEL>
       1

$$$$
best_conformers_26.pdb
 OpenBabel02042510453D

 43 47  0  0  1  0  0  0  0  0999 V2000
    4.4650   -2.0320   21.6930 O   0  0  0  0  0  0  0  0  0  0  0  0
    5.6630   -1.8760   21.7050 C   0  0  0  0  0  0  0  0  0  0  0  0
    6.5940   -2.5630   22.4290 N   0  0  0  0  0  0  0  0  0  0  0  0
    7.9580   -2.1690   22.1730 C   0  0  1  0  0  0  0  0  0  0  0  0
    8.8360   -1.8150   23.3840 C   0  0  0  0  0  0  0  0  0  0  0  0
    9.8230   -2.9540   23.0250 C   0  0  2  0  0  0  0  0  0  0  0  0
   11.2270   -2.4570   22.8110 C   0  0  0  0  0  0  0  0  0  0  0  0
   11.8560   -2.4640   21.5640 C   0  0  0  0  0  0  0  0  0  0  0  0
   13.1800   -2.0760   21.4280 C   0  0  0  0  0  0  0  0  0  0  0  0
   13.8510   -1.5880   22.5380 C   0  0  0  0  0  0  0  0  0  0  0  0
   13.2620   -1.5390   23.7910 C   0  0  0  0  0  0  0  0  0  0  0  0
   11.9400   -1.9410   23.8980 C   0  0  0  0  0  0  0  0  0  0  0  0
   11.1770   -1.8380   25.4640 Cl  0  0  0  0  0  0  0  0  0  0  0  0
   13.8200   -1.2040   24.6610 H   0  0  0  0  0  0  0  0  0  0  0  0
   14.8710   -1.2860   22.4600 H   0  0  0  0  0  0  0  0  0  0  0  0
   13.6940   -2.1960   20.4790 H   0  0  0  0  0  0  0  0  0  0  0  0
   11.3160   -2.8610   20.7150 H   0  0  0  0  0  0  0  0  0  0  0  0
    8.9700   -3.2660   21.7810 C   0  0  0  0  0  0  0  0  0  0  0  0
    9.4540   -3.0330   20.8390 H   0  0  0  0  0  0  0  0  0  0  0  0
    8.5360   -4.2630   21.7270 H   0  0  0  0  0  0  0  0  0  0  0  0
    9.8060   -3.7700   23.7590 H   0  0  0  0  0  0  0  0  0  0  0  0
    9.2740   -0.8210   23.3020 H   0  0  0  0  0  0  0  0  0  0  0  0
    8.3240   -1.9200   24.3370 H   0  0  0  0  0  0  0  0  0  0  0  0
    7.7630   -1.0720   21.1400 C   0  0  0  0  0  0  0  0  0  0  0  0
    8.6060   -0.4260   20.5660 O   0  0  0  0  0  0  0  0  0  0  0  0
    6.3840   -0.9370   20.9420 N   0  0  0  0  0  0  0  0  0  0  0  0
    5.8180   -0.2150   19.8560 C   0  0  0  0  0  0  0  0  0  0  0  0
    6.2790   -0.4620   18.5860 C   0  0  0  0  0  0  0  0  0  0  0  0
    5.7940    0.1180   17.4610 N   0  0  0  0  0  0  0  0  0  0  0  0
    4.8180    0.9820   17.6100 C   0  0  0  0  0  0  0  0  0  0  0  0
    4.2600    1.3440   18.8680 C   0  0  0  0  0  0  0  0  0  0  0  0
    3.2140    2.3010   18.9570 C   0  0  0  0  0  0  0  0  0  0  0  0
    2.6970    2.6490   20.1730 C   0  0  0  0  0  0  0  0  0  0  0  0
    3.2080    2.0670   21.3540 C   0  0  0  0  0  0  0  0  0  0  0  0
    4.2230    1.1420   21.2970 C   0  0  0  0  0  0  0  0  0  0  0  0
    4.7680    0.7410   20.0420 C   0  0  0  0  0  0  0  0  0  0  0  0
    4.6050    0.7150   22.2200 H   0  0  0  0  0  0  0  0  0  0  0  0
    2.7930    2.3600   22.3150 H   0  0  0  0  0  0  0  0  0  0  0  0
    1.8960    3.3810   20.2400 H   0  0  0  0  0  0  0  0  0  0  0  0
    2.8450    2.7480   18.0380 H   0  0  0  0  0  0  0  0  0  0  0  0
    4.4190    1.4510   16.7080 H   0  0  0  0  0  0  0  0  0  0  0  0
    7.0800   -1.1810   18.4330 H   0  0  0  0  0  0  0  0  0  0  0  0
    6.3150   -3.3000   23.0510 H   0  0  0  0  0  0  0  0  0  0  0  0
  1  2  2  0  0  0  0
  2  3  1  0  0  0  0
  2 26  1  0  0  0  0
  3  4  1  0  0  0  0
  3 43  1  0  0  0  0
  4  5  1  0  0  0  0
  4 18  1  0  0  0  0
  4 24  1  6  0  0  0
  5  6  1  0  0  0  0
  5 22  1  0  0  0  0
  5 23  1  0  0  0  0
  6  7  1  0  0  0  0
  6 18  1  0  0  0  0
  6 21  1  1  0  0  0
  7  8  2  0  0  0  0
  7 12  1  0  0  0  0
  8  9  1  0  0  0  0
  8 17  1  0  0  0  0
  9 10  2  0  0  0  0
  9 16  1  0  0  0  0
 10 11  1  0  0  0  0
 10 15  1  0  0  0  0
 11 12  2  0  0  0  0
 11 14  1  0  0  0  0
 12 13  1  0  0  0  0
 18 19  1  0  0  0  0
 18 20  1  0  0  0  0
 24 25  2  0  0  0  0
 24 26  1  0  0  0  0
 26 27  1  0  0  0  0
 27 28  2  0  0  0  0
 27 36  1  0  0  0  0
 28 29  1  0  0  0  0
 28 42  1  0  0  0  0
 29 30  2  0  0  0  0
 30 31  1  0  0  0  0
 30 41  1  0  0  0  0
 31 32  2  0  0  0  0
 31 36  1  0  0  0  0
 32 33  1  0  0  0  0
 32 40  1  0  0  0  0
 33 34  2  0  0  0  0
 33 39  1  0  0  0  0
 34 35  1  0  0  0  0
 34 38  1  0  0  0  0
 35 36  2  0  0  0  0
 35 37  1  0  0  0  0
M  END
>  <MODEL>
       2

$$$$
best_conformers_26.pdb
 OpenBabel02042510453D

 43 47  0  0  1  0  0  0  0  0999 V2000
    8.6790   -0.4180   20.5740 O   0  0  0  0  0  0  0  0  0  0  0  0
    7.8100   -1.0530   21.1270 C   0  0  0  0  0  0  0  0  0  0  0  0
    7.9740   -2.0130   22.0800 N   0  0  0  0  0  0  0  0  0  0  0  0
    6.7510   -2.6070   22.5520 C   0  0  1  0  0  0  0  0  0  0  0  0
    6.6170   -4.1440   22.4830 C   0  0  0  0  0  0  0  0  0  0  0  0
    6.4820   -4.2280   24.0320 C   0  0  2  0  0  0  0  0  0  0  0  0
    5.2440   -4.9040   24.5780 C   0  0  0  0  0  0  0  0  0  0  0  0
    4.4540   -4.3050   25.5640 C   0  0  0  0  0  0  0  0  0  0  0  0
    3.3010   -4.9110   26.0450 C   0  0  0  0  0  0  0  0  0  0  0  0
    2.9130   -6.1590   25.5640 C   0  0  0  0  0  0  0  0  0  0  0  0
    3.7040   -6.8040   24.6190 C   0  0  0  0  0  0  0  0  0  0  0  0
    4.8620   -6.1850   24.1630 C   0  0  0  0  0  0  0  0  0  0  0  0
    5.8720   -7.0670   23.0410 Cl  0  0  0  0  0  0  0  0  0  0  0  0
    3.4410   -7.7860   24.2360 H   0  0  0  0  0  0  0  0  0  0  0  0
    2.0130   -6.6410   25.9350 H   0  0  0  0  0  0  0  0  0  0  0  0
    2.7090   -4.4030   26.8010 H   0  0  0  0  0  0  0  0  0  0  0  0
    4.7600   -3.3360   25.9490 H   0  0  0  0  0  0  0  0  0  0  0  0
    6.5410   -2.6740   24.0830 C   0  0  0  0  0  0  0  0  0  0  0  0
    5.6190   -2.1780   24.3950 H   0  0  0  0  0  0  0  0  0  0  0  0
    7.3770   -2.2610   24.6560 H   0  0  0  0  0  0  0  0  0  0  0  0
    7.3750   -4.6880   24.4790 H   0  0  0  0  0  0  0  0  0  0  0  0
    7.4930   -4.6460   22.0600 H   0  0  0  0  0  0  0  0  0  0  0  0
    5.7210   -4.4490   21.9410 H   0  0  0  0  0  0  0  0  0  0  0  0
    5.7190   -1.8340   21.7410 C   0  0  0  0  0  0  0  0  0  0  0  0
    4.5210   -1.9850   21.7590 O   0  0  0  0  0  0  0  0  0  0  0  0
    6.4140   -0.9240   20.9320 N   0  0  0  0  0  0  0  0  0  0  0  0
    5.8260   -0.1990   19.8510 C   0  0  0  0  0  0  0  0  0  0  0  0
    6.2620   -0.4610   18.5780 C   0  0  0  0  0  0  0  0  0  0  0  0
    5.7680    0.1230   17.4610 N   0  0  0  0  0  0  0  0  0  0  0  0
    4.8030    0.9960   17.6140 C   0  0  0  0  0  0  0  0  0  0  0  0
    4.2480    1.3660   18.8670 C   0  0  0  0  0  0  0  0  0  0  0  0
    3.1950    2.3180   18.9590 C   0  0  0  0  0  0  0  0  0  0  0  0
    2.6760    2.6640   20.1740 C   0  0  0  0  0  0  0  0  0  0  0  0
    3.2000    2.0740   21.3490 C   0  0  0  0  0  0  0  0  0  0  0  0
    4.2210    1.1570   21.2860 C   0  0  0  0  0  0  0  0  0  0  0  0
    4.7710    0.7610   20.0350 C   0  0  0  0  0  0  0  0  0  0  0  0
    4.6040    0.7140   22.2000 H   0  0  0  0  0  0  0  0  0  0  0  0
    2.7870    2.3570   22.3120 H   0  0  0  0  0  0  0  0  0  0  0  0
    1.8730    3.3960   20.2500 H   0  0  0  0  0  0  0  0  0  0  0  0
    2.8190    2.7700   18.0430 H   0  0  0  0  0  0  0  0  0  0  0  0
    4.4140    1.4610   16.7100 H   0  0  0  0  0  0  0  0  0  0  0  0
    7.0500   -1.1920   18.4130 H   0  0  0  0  0  0  0  0  0  0  0  0
    8.8910   -2.3340   22.3450 H   0  0  0  0  0  0  0  0  0  0  0  0
  1  2  2  0  0  0  0
  2  3  1  0  0  0  0
  2 26  1  0  0  0  0
  3  4  1  0  0  0  0
  3 43  1  0  0  0  0
  4  5  1  0  0  0  0
  4 18  1  0  0  0  0
  4 24  1  6  0  0  0
  5  6  1  0  0  0  0
  5 22  1  0  0  0  0
  5 23  1  0  0  0  0
  6  7  1  0  0  0  0
  6 18  1  0  0  0  0
  6 21  1  1  0  0  0
  7  8  2  0  0  0  0
  7 12  1  0  0  0  0
  8  9  1  0  0  0  0
  8 17  1  0  0  0  0
  9 10  2  0  0  0  0
  9 16  1  0  0  0  0
 10 11  1  0  0  0  0
 10 15  1  0  0  0  0
 11 12  2  0  0  0  0
 11 14  1  0  0  0  0
 12 13  1  0  0  0  0
 18 19  1  0  0  0  0
 18 20  1  0  0  0  0
 24 25  2  0  0  0  0
 24 26  1  0  0  0  0
 26 27  1  0  0  0  0
 27 28  2  0  0  0  0
 27 36  1  0  0  0  0
 28 29  1  0  0  0  0
 28 42  1  0  0  0  0
 29 30  2  0  0  0  0
 30 31  1  0  0  0  0
 30 41  1  0  0  0  0
 31 32  2  0  0  0  0
 31 36  1  0  0  0  0
 32 33  1  0  0  0  0
 32 40  1  0  0  0  0
 33 34  2  0  0  0  0
 33 39  1  0  0  0  0
 34 35  1  0  0  0  0
 34 38  1  0  0  0  0
 35 36  2  0  0  0  0
 35 37  1  0  0  0  0
M  END
>  <MODEL>
       3

$$$$
best_conformers_26.pdb
 OpenBabel02042510453D

 43 47  0  0  1  0  0  0  0  0999 V2000
    8.6780   -0.4200   20.5750 O   0  0  0  0  0  0  0  0  0  0  0  0
    7.8090   -1.0550   21.1260 C   0  0  0  0  0  0  0  0  0  0  0  0
    7.9720   -2.0170   22.0780 N   0  0  0  0  0  0  0  0  0  0  0  0
    6.7480   -2.6050   22.5550 C   0  0  1  0  0  0  0  0  0  0  0  0
    6.6110   -4.1460   22.5080 C   0  0  0  0  0  0  0  0  0  0  0  0
    6.4750   -4.2060   24.0560 C   0  0  2  0  0  0  0  0  0  0  0  0
    5.2330   -4.8500   24.6330 C   0  0  0  0  0  0  0  0  0  0  0  0
    4.5120   -5.8220   23.9340 C   0  0  0  0  0  0  0  0  0  0  0  0
    3.3560   -6.3890   24.4530 C   0  0  0  0  0  0  0  0  0  0  0  0
    2.8940   -6.0120   25.7120 C   0  0  0  0  0  0  0  0  0  0  0  0
    3.6170   -5.0860   26.4550 C   0  0  0  0  0  0  0  0  0  0  0  0
    4.7800   -4.5420   25.9220 C   0  0  0  0  0  0  0  0  0  0  0  0
    5.7010   -3.4460   26.9240 Cl  0  0  0  0  0  0  0  0  0  0  0  0
    3.2970   -4.7840   27.4490 H   0  0  0  0  0  0  0  0  0  0  0  0
    1.9910   -6.4510   26.1270 H   0  0  0  0  0  0  0  0  0  0  0  0
    2.8190   -7.1310   23.8680 H   0  0  0  0  0  0  0  0  0  0  0  0
    4.8760   -6.1260   22.9570 H   0  0  0  0  0  0  0  0  0  0  0  0
    6.5370   -2.6500   24.0840 C   0  0  0  0  0  0  0  0  0  0  0  0
    7.3750   -2.2330   24.6540 H   0  0  0  0  0  0  0  0  0  0  0  0
    5.6090   -2.1680   24.3960 H   0  0  0  0  0  0  0  0  0  0  0  0
    7.3650   -4.6470   24.5270 H   0  0  0  0  0  0  0  0  0  0  0  0
    7.4860   -4.6520   22.0890 H   0  0  0  0  0  0  0  0  0  0  0  0
    5.7220   -4.4460   21.9490 H   0  0  0  0  0  0  0  0  0  0  0  0
    5.7170   -1.8360   21.7390 C   0  0  0  0  0  0  0  0  0  0  0  0
    4.5200   -1.9890   21.7550 O   0  0  0  0  0  0  0  0  0  0  0  0
    6.4120   -0.9260   20.9310 N   0  0  0  0  0  0  0  0  0  0  0  0
    5.8250   -0.1990   19.8510 C   0  0  0  0  0  0  0  0  0  0  0  0
    6.2630   -0.4610   18.5780 C   0  0  0  0  0  0  0  0  0  0  0  0
    5.7690    0.1230   17.4610 N   0  0  0  0  0  0  0  0  0  0  0  0
    4.8040    0.9960   17.6150 C   0  0  0  0  0  0  0  0  0  0  0  0
    4.2490    1.3660   18.8680 C   0  0  0  0  0  0  0  0  0  0  0  0
    3.1950    2.3180   18.9590 C   0  0  0  0  0  0  0  0  0  0  0  0
    2.6770    2.6640   20.1740 C   0  0  0  0  0  0  0  0  0  0  0  0
    3.2000    2.0750   21.3490 C   0  0  0  0  0  0  0  0  0  0  0  0
    4.2220    1.1570   21.2860 C   0  0  0  0  0  0  0  0  0  0  0  0
    4.7720    0.7600   20.0350 C   0  0  0  0  0  0  0  0  0  0  0  0
    4.6040    0.7140   22.2000 H   0  0  0  0  0  0  0  0  0  0  0  0
    2.7870    2.3570   22.3130 H   0  0  0  0  0  0  0  0  0  0  0  0
    1.8730    3.3960   20.2500 H   0  0  0  0  0  0  0  0  0  0  0  0
    2.8200    2.7690   18.0430 H   0  0  0  0  0  0  0  0  0  0  0  0
    4.4140    1.4600   16.7100 H   0  0  0  0  0  0  0  0  0  0  0  0
    7.0510   -1.1920   18.4130 H   0  0  0  0  0  0  0  0  0  0  0  0
    8.8880   -2.3310   22.3510 H   0  0  0  0  0  0  0  0  0  0  0  0
  1  2  2  0  0  0  0
  2  3  1  0  0  0  0
  2 26  1  0  0  0  0
  3  4  1  0  0  0  0
  3 43  1  0  0  0  0
  4  5  1  0  0  0  0
  4 18  1  0  0  0  0
  4 24  1  6  0  0  0
  5  6  1  0  0  0  0
  5 22  1  0  0  0  0
  5 23  1  0  0  0  0
  6  7  1  0  0  0  0
  6 18  1  0  0  0  0
  6 21  1  1  0  0  0
  7  8  2  0  0  0  0
  7 12  1  0  0  0  0
  8  9  1  0  0  0  0
  8 17  1  0  0  0  0
  9 10  2  0  0  0  0
  9 16  1  0  0  0  0
 10 11  1  0  0  0  0
 10 15  1  0  0  0  0
 11 12  2  0  0  0  0
 11 14  1  0  0  0  0
 12 13  1  0  0  0  0
 18 19  1  0  0  0  0
 18 20  1  0  0  0  0
 24 25  2  0  0  0  0
 24 26  1  0  0  0  0
 26 27  1  0  0  0  0
 27 28  2  0  0  0  0
 27 36  1  0  0  0  0
 28 29  1  0  0  0  0
 28 42  1  0  0  0  0
 29 30  2  0  0  0  0
 30 31  1  0  0  0  0
 30 41  1  0  0  0  0
 31 32  2  0  0  0  0
 31 36  1  0  0  0  0
 32 33  1  0  0  0  0
 32 40  1  0  0  0  0
 33 34  2  0  0  0  0
 33 39  1  0  0  0  0
 34 35  1  0  0  0  0
 34 38  1  0  0  0  0
 35 36  2  0  0  0  0
 35 37  1  0  0  0  0
M  END
>  <MODEL>
       4

$$$$
best_conformers_26.pdb
 OpenBabel02042510453D

 43 47  0  0  1  0  0  0  0  0999 V2000
    7.9870    0.8090   21.5840 O   0  0  0  0  0  0  0  0  0  0  0  0
    7.3320   -0.1640   21.8520 C   0  0  0  0  0  0  0  0  0  0  0  0
    7.3390   -0.8920   23.0110 N   0  0  0  0  0  0  0  0  0  0  0  0
    6.3910   -1.9780   23.0550 C   0  0  1  0  0  0  0  0  0  0  0  0
    6.9210   -3.3610   23.5070 C   0  0  0  0  0  0  0  0  0  0  0  0
    5.9600   -3.3630   24.7320 C   0  0  2  0  0  0  0  0  0  0  0  0
    4.9910   -4.5190   24.8630 C   0  0  0  0  0  0  0  0  0  0  0  0
    5.2610   -5.7750   24.3110 C   0  0  0  0  0  0  0  0  0  0  0  0
    4.3580   -6.8270   24.4020 C   0  0  0  0  0  0  0  0  0  0  0  0
    3.1520   -6.6560   25.0770 C   0  0  0  0  0  0  0  0  0  0  0  0
    2.8740   -5.4350   25.6820 C   0  0  0  0  0  0  0  0  0  0  0  0
    3.7990   -4.4000   25.5890 C   0  0  0  0  0  0  0  0  0  0  0  0
    3.4460   -2.9080   26.4260 Cl  0  0  0  0  0  0  0  0  0  0  0  0
    1.9490   -5.2700   26.2300 H   0  0  0  0  0  0  0  0  0  0  0  0
    2.4360   -7.4730   25.1530 H   0  0  0  0  0  0  0  0  0  0  0  0
    4.6020   -7.7790   23.9370 H   0  0  0  0  0  0  0  0  0  0  0  0
    6.2060   -5.9090   23.7910 H   0  0  0  0  0  0  0  0  0  0  0  0
    5.3830   -2.0080   24.2290 C   0  0  0  0  0  0  0  0  0  0  0  0
    4.3490   -2.0740   23.8850 H   0  0  0  0  0  0  0  0  0  0  0  0
    5.4810   -1.1730   24.9310 H   0  0  0  0  0  0  0  0  0  0  0  0
    6.4980   -3.2360   25.6830 H   0  0  0  0  0  0  0  0  0  0  0  0
    6.7310   -4.1370   22.7630 H   0  0  0  0  0  0  0  0  0  0  0  0
    7.9860   -3.3640   23.7570 H   0  0  0  0  0  0  0  0  0  0  0  0
    5.7800   -1.8920   21.6570 C   0  0  0  0  0  0  0  0  0  0  0  0
    4.9310   -2.5950   21.1720 O   0  0  0  0  0  0  0  0  0  0  0  0
    6.3820   -0.7980   21.0180 N   0  0  0  0  0  0  0  0  0  0  0  0
    5.8080   -0.1650   19.8740 C   0  0  0  0  0  0  0  0  0  0  0  0
    6.2590   -0.4630   18.6180 C   0  0  0  0  0  0  0  0  0  0  0  0
    5.7800    0.1150   17.4860 N   0  0  0  0  0  0  0  0  0  0  0  0
    4.8130    0.9910   17.6190 C   0  0  0  0  0  0  0  0  0  0  0  0
    4.2320    1.3710   18.8600 C   0  0  0  0  0  0  0  0  0  0  0  0
    3.1780    2.3200   18.9530 C   0  0  0  0  0  0  0  0  0  0  0  0
    2.6500    2.6450   20.1710 C   0  0  0  0  0  0  0  0  0  0  0  0
    3.1520    2.0410   21.3470 C   0  0  0  0  0  0  0  0  0  0  0  0
    4.1720    1.1300   21.2820 C   0  0  0  0  0  0  0  0  0  0  0  0
    4.7390    0.7730   20.0290 C   0  0  0  0  0  0  0  0  0  0  0  0
    4.5590    0.6730   22.1860 H   0  0  0  0  0  0  0  0  0  0  0  0
    2.7310    2.3030   22.3120 H   0  0  0  0  0  0  0  0  0  0  0  0
    1.8460    3.3730   20.2480 H   0  0  0  0  0  0  0  0  0  0  0  0
    2.8130    2.7790   18.0390 H   0  0  0  0  0  0  0  0  0  0  0  0
    4.4320    1.4470   16.7070 H   0  0  0  0  0  0  0  0  0  0  0  0
    7.0490   -1.1990   18.4720 H   0  0  0  0  0  0  0  0  0  0  0  0
    7.8730   -0.5830   23.8070 H   0  0  0  0  0  0  0  0  0  0  0  0
  1  2  2  0  0  0  0
  2  3  1  0  0  0  0
  2 26  1  0  0  0  0
  3  4  1  0  0  0  0
  3 43  1  0  0  0  0
  4  5  1  0  0  0  0
  4 18  1  0  0  0  0
  4 24  1  6  0  0  0
  5  6  1  0  0  0  0
  5 22  1  0  0  0  0
  5 23  1  0  0  0  0
  6  7  1  0  0  0  0
  6 18  1  0  0  0  0
  6 21  1  1  0  0  0
  7  8  2  0  0  0  0
  7 12  1  0  0  0  0
  8  9  1  0  0  0  0
  8 17  1  0  0  0  0
  9 10  2  0  0  0  0
  9 16  1  0  0  0  0
 10 11  1  0  0  0  0
 10 15  1  0  0  0  0
 11 12  2  0  0  0  0
 11 14  1  0  0  0  0
 12 13  1  0  0  0  0
 18 19  1  0  0  0  0
 18 20  1  0  0  0  0
 24 25  2  0  0  0  0
 24 26  1  0  0  0  0
 26 27  1  0  0  0  0
 27 28  2  0  0  0  0
 27 36  1  0  0  0  0
 28 29  1  0  0  0  0
 28 42  1  0  0  0  0
 29 30  2  0  0  0  0
 30 31  1  0  0  0  0
 30 41  1  0  0  0  0
 31 32  2  0  0  0  0
 31 36  1  0  0  0  0
 32 33  1  0  0  0  0
 32 40  1  0  0  0  0
 33 34  2  0  0  0  0
 33 39  1  0  0  0  0
 34 35  1  0  0  0  0
 34 38  1  0  0  0  0
 35 36  2  0  0  0  0
 35 37  1  0  0  0  0
M  END
>  <MODEL>
       5

$$$$
best_conformers_26.pdb
 OpenBabel02042510453D

 43 47  0  0  1  0  0  0  0  0999 V2000
    7.6840    0.9590   21.8350 O   0  0  0  0  0  0  0  0  0  0  0  0
    7.1850   -0.1300   21.9600 C   0  0  0  0  0  0  0  0  0  0  0  0
    7.2610   -0.9680   23.0370 N   0  0  0  0  0  0  0  0  0  0  0  0
    6.5060   -2.1900   22.9100 C   0  0  1  0  0  0  0  0  0  0  0  0
    7.2410   -3.5100   23.2460 C   0  0  0  0  0  0  0  0  0  0  0  0
    6.2430   -3.7970   24.4080 C   0  0  2  0  0  0  0  0  0  0  0  0
    5.4730   -5.0960   24.3600 C   0  0  0  0  0  0  0  0  0  0  0  0
    5.9820   -6.2150   23.7030 C   0  0  0  0  0  0  0  0  0  0  0  0
    5.2830   -7.4080   23.6400 C   0  0  0  0  0  0  0  0  0  0  0  0
    4.0270   -7.5290   24.2340 C   0  0  0  0  0  0  0  0  0  0  0  0
    3.5120   -6.4470   24.9440 C   0  0  0  0  0  0  0  0  0  0  0  0
    4.2500   -5.2680   25.0210 C   0  0  0  0  0  0  0  0  0  0  0  0
    3.6170   -3.9610   25.9920 Cl  0  0  0  0  0  0  0  0  0  0  0  0
    2.5510   -6.5010   25.4510 H   0  0  0  0  0  0  0  0  0  0  0  0
    3.4590   -8.4560   24.1700 H   0  0  0  0  0  0  0  0  0  0  0  0
    5.7700   -8.2260   23.1270 H   0  0  0  0  0  0  0  0  0  0  0  0
    6.9540   -6.1430   23.2220 H   0  0  0  0  0  0  0  0  0  0  0  0
    5.4680   -2.5080   24.0110 C   0  0  0  0  0  0  0  0  0  0  0  0
    4.4770   -2.7020   23.5990 H   0  0  0  0  0  0  0  0  0  0  0  0
    5.3930   -1.7550   24.8020 H   0  0  0  0  0  0  0  0  0  0  0  0
    6.7150   -3.6990   25.3970 H   0  0  0  0  0  0  0  0  0  0  0  0
    7.2140   -4.2190   22.4140 H   0  0  0  0  0  0  0  0  0  0  0  0
    8.2820   -3.3720   23.5550 H   0  0  0  0  0  0  0  0  0  0  0  0
    5.9460   -2.0470   21.4950 C   0  0  0  0  0  0  0  0  0  0  0  0
    5.2410   -2.8180   20.8950 O   0  0  0  0  0  0  0  0  0  0  0  0
    6.3870   -0.8060   21.0120 N   0  0  0  0  0  0  0  0  0  0  0  0
    5.8090   -0.1660   19.8770 C   0  0  0  0  0  0  0  0  0  0  0  0
    6.2580   -0.4660   18.6200 C   0  0  0  0  0  0  0  0  0  0  0  0
    5.7830    0.1140   17.4900 N   0  0  0  0  0  0  0  0  0  0  0  0
    4.8170    0.9920   17.6240 C   0  0  0  0  0  0  0  0  0  0  0  0
    4.2360    1.3720   18.8640 C   0  0  0  0  0  0  0  0  0  0  0  0
    3.1790    2.3160   18.9550 C   0  0  0  0  0  0  0  0  0  0  0  0
    2.6400    2.6340   20.1700 C   0  0  0  0  0  0  0  0  0  0  0  0
    3.1310    2.0190   21.3470 C   0  0  0  0  0  0  0  0  0  0  0  0
    4.1520    1.1070   21.2840 C   0  0  0  0  0  0  0  0  0  0  0  0
    4.7400    0.7710   20.0350 C   0  0  0  0  0  0  0  0  0  0  0  0
    4.5170    0.6290   22.1880 H   0  0  0  0  0  0  0  0  0  0  0  0
    2.6990    2.2750   22.3080 H   0  0  0  0  0  0  0  0  0  0  0  0
    1.8350    3.3590   20.2450 H   0  0  0  0  0  0  0  0  0  0  0  0
    2.8170    2.7770   18.0400 H   0  0  0  0  0  0  0  0  0  0  0  0
    4.4350    1.4460   16.7120 H   0  0  0  0  0  0  0  0  0  0  0  0
    7.0460   -1.2030   18.4770 H   0  0  0  0  0  0  0  0  0  0  0  0
    7.7050   -0.6720   23.8920 H   0  0  0  0  0  0  0  0  0  0  0  0
  1  2  2  0  0  0  0
  2  3  1  0  0  0  0
  2 26  1  0  0  0  0
  3  4  1  0  0  0  0
  3 43  1  0  0  0  0
  4  5  1  0  0  0  0
  4 18  1  0  0  0  0
  4 24  1  6  0  0  0
  5  6  1  0  0  0  0
  5 22  1  0  0  0  0
  5 23  1  0  0  0  0
  6  7  1  0  0  0  0
  6 18  1  0  0  0  0
  6 21  1  1  0  0  0
  7  8  2  0  0  0  0
  7 12  1  0  0  0  0
  8  9  1  0  0  0  0
  8 17  1  0  0  0  0
  9 10  2  0  0  0  0
  9 16  1  0  0  0  0
 10 11  1  0  0  0  0
 10 15  1  0  0  0  0
 11 12  2  0  0  0  0
 11 14  1  0  0  0  0
 12 13  1  0  0  0  0
 18 19  1  0  0  0  0
 18 20  1  0  0  0  0
 24 25  2  0  0  0  0
 24 26  1  0  0  0  0
 26 27  1  0  0  0  0
 27 28  2  0  0  0  0
 27 36  1  0  0  0  0
 28 29  1  0  0  0  0
 28 42  1  0  0  0  0
 29 30  2  0  0  0  0
 30 31  1  0  0  0  0
 30 41  1  0  0  0  0
 31 32  2  0  0  0  0
 31 36  1  0  0  0  0
 32 33  1  0  0  0  0
 32 40  1  0  0  0  0
 33 34  2  0  0  0  0
 33 39  1  0  0  0  0
 34 35  1  0  0  0  0
 34 38  1  0  0  0  0
 35 36  2  0  0  0  0
 35 37  1  0  0  0  0
M  END
>  <MODEL>
       6

$$$$
