best_conformers_45.pdb
 OpenBabel02042510453D

 60 64  0  0  1  0  0  0  0  0999 V2000
    5.0450   -8.1320   25.4700 C   0  0  0  0  0  0  0  0  0  0  0  0
    4.5600   -6.9260   24.8330 N   0  0  0  0  0  0  0  0  0  0  0  0
    5.2090   -6.4840   23.7270 C   0  0  0  0  0  0  0  0  0  0  0  0
    6.2250   -7.0000   23.2880 O   0  0  0  0  0  0  0  0  0  0  0  0
    4.5830   -5.2520   23.0840 C   0  0  0  0  0  0  0  0  0  0  0  0
    5.1630   -4.0600   23.6600 N   0  0  0  0  0  0  0  0  0  0  0  0
    6.4740   -3.6240   23.2070 C   0  0  0  0  0  0  0  0  0  0  0  0
    6.4560   -2.1050   22.9520 C   0  0  2  0  0  0  0  0  0  0  0  0
    5.6420   -1.8160   21.6760 C   0  0  0  0  0  0  0  0  0  0  0  0
    4.5950   -2.3270   21.3270 O   0  0  0  0  0  0  0  0  0  0  0  0
    6.3210   -0.8660   20.9540 N   0  0  0  0  0  0  0  0  0  0  0  0
    5.7690   -0.2100   19.8430 C   0  0  0  0  0  0  0  0  0  0  0  0
    6.2680   -0.4510   18.5920 C   0  0  0  0  0  0  0  0  0  0  0  0
    5.8090    0.1290   17.4570 N   0  0  0  0  0  0  0  0  0  0  0  0
    4.8260    0.9870   17.6050 C   0  0  0  0  0  0  0  0  0  0  0  0
    4.2380    1.3400   18.8540 C   0  0  0  0  0  0  0  0  0  0  0  0
    3.2010    2.3010   18.9450 C   0  0  0  0  0  0  0  0  0  0  0  0
    2.6920    2.6540   20.1610 C   0  0  0  0  0  0  0  0  0  0  0  0
    3.1980    2.0800   21.3520 C   0  0  0  0  0  0  0  0  0  0  0  0
    4.2000    1.1440   21.3000 C   0  0  0  0  0  0  0  0  0  0  0  0
    4.7260    0.7400   20.0340 C   0  0  0  0  0  0  0  0  0  0  0  0
    4.5980    0.7270   22.2300 H   0  0  0  0  0  0  0  0  0  0  0  0
    2.7840    2.3900   22.3080 H   0  0  0  0  0  0  0  0  0  0  0  0
    1.9020    3.3960   20.2220 H   0  0  0  0  0  0  0  0  0  0  0  0
    2.8420    2.7510   18.0210 H   0  0  0  0  0  0  0  0  0  0  0  0
    4.4350    1.4470   16.6990 H   0  0  0  0  0  0  0  0  0  0  0  0
    7.0880   -1.1590   18.4810 H   0  0  0  0  0  0  0  0  0  0  0  0
    7.6460   -0.5500   21.4150 C   0  0  0  0  0  0  0  0  0  0  0  0
    7.8460   -1.4970   22.6160 C   0  0  2  0  0  0  0  0  0  0  0  0
    8.9480   -2.4720   22.2430 C   0  0  0  0  0  0  0  0  0  0  0  0
   10.0790   -1.6730   22.0060 O   0  0  0  0  0  0  0  0  0  0  0  0
   11.2080   -2.4070   21.6270 C   0  0  0  0  0  0  0  0  0  0  0  0
   12.0590   -1.7200   21.5710 H   0  0  0  0  0  0  0  0  0  0  0  0
   11.4130   -3.1840   22.3720 H   0  0  0  0  0  0  0  0  0  0  0  0
   11.0850   -2.9000   20.6520 H   0  0  0  0  0  0  0  0  0  0  0  0
    8.6710   -3.0370   21.3380 H   0  0  0  0  0  0  0  0  0  0  0  0
    9.1380   -3.2030   23.0420 H   0  0  0  0  0  0  0  0  0  0  0  0
    8.2200   -0.9590   23.4920 H   0  0  0  0  0  0  0  0  0  0  0  0
    7.7390    0.5140   21.6720 H   0  0  0  0  0  0  0  0  0  0  0  0
    8.3680   -0.7360   20.6110 H   0  0  0  0  0  0  0  0  0  0  0  0
    5.8440   -1.4240   24.1750 C   0  0  0  0  0  0  0  0  0  0  0  0
    6.1540   -0.0900   24.4730 C   0  0  0  0  0  0  0  0  0  0  0  0
    5.6210    0.5230   25.5910 C   0  0  0  0  0  0  0  0  0  0  0  0
    6.0590    2.1710   25.9400 Cl  0  0  0  0  0  0  0  0  0  0  0  0
    4.7640   -0.1580   26.4520 C   0  0  0  0  0  0  0  0  0  0  0  0
    4.4390   -1.4680   26.1610 C   0  0  0  0  0  0  0  0  0  0  0  0
    4.9640   -2.0930   25.0320 C   0  0  0  0  0  0  0  0  0  0  0  0
    4.5430   -3.4920   24.7340 C   0  0  0  0  0  0  0  0  0  0  0  0
    3.6790   -4.0860   25.3810 O   0  0  0  0  0  0  0  0  0  0  0  0
    3.7670   -2.0480   26.7850 H   0  0  0  0  0  0  0  0  0  0  0  0
    4.3610    0.3340   27.3280 H   0  0  0  0  0  0  0  0  0  0  0  0
    6.8390    0.4850   23.8580 H   0  0  0  0  0  0  0  0  0  0  0  0
    7.2430   -3.8520   23.9630 H   0  0  0  0  0  0  0  0  0  0  0  0
    6.7150   -4.1740   22.2910 H   0  0  0  0  0  0  0  0  0  0  0  0
    4.7570   -5.2380   22.0000 H   0  0  0  0  0  0  0  0  0  0  0  0
    3.5060   -5.2300   23.2640 H   0  0  0  0  0  0  0  0  0  0  0  0
    3.8770   -6.3160   25.2690 H   0  0  0  0  0  0  0  0  0  0  0  0
    6.0400   -7.9750   25.9080 H   0  0  0  0  0  0  0  0  0  0  0  0
    5.1160   -8.9170   24.7090 H   0  0  0  0  0  0  0  0  0  0  0  0
    4.3400   -8.4320   26.2480 H   0  0  0  0  0  0  0  0  0  0  0  0
  1  2  1  0  0  0  0
  1 58  1  0  0  0  0
  1 59  1  0  0  0  0
  1 60  1  0  0  0  0
  2  3  1  0  0  0  0
  2 57  1  0  0  0  0
  3  4  2  0  0  0  0
  3  5  1  0  0  0  0
  5  6  1  0  0  0  0
  5 55  1  0  0  0  0
  5 56  1  0  0  0  0
  6  7  1  0  0  0  0
  6 48  1  0  0  0  0
  7  8  1  0  0  0  0
  7 53  1  0  0  0  0
  7 54  1  0  0  0  0
  8  9  1  6  0  0  0
  8 29  1  0  0  0  0
  8 41  1  0  0  0  0
  9 10  2  0  0  0  0
  9 11  1  0  0  0  0
 11 12  1  0  0  0  0
 11 28  1  0  0  0  0
 12 13  2  0  0  0  0
 12 21  1  0  0  0  0
 13 14  1  0  0  0  0
 13 27  1  0  0  0  0
 14 15  2  0  0  0  0
 15 16  1  0  0  0  0
 15 26  1  0  0  0  0
 16 17  2  0  0  0  0
 16 21  1  0  0  0  0
 17 18  1  0  0  0  0
 17 25  1  0  0  0  0
 18 19  2  0  0  0  0
 18 24  1  0  0  0  0
 19 20  1  0  0  0  0
 19 23  1  0  0  0  0
 20 21  2  0  0  0  0
 20 22  1  0  0  0  0
 28 29  1  0  0  0  0
 28 39  1  0  0  0  0
 28 40  1  0  0  0  0
 29 30  1  0  0  0  0
 29 38  1  1  0  0  0
 30 31  1  0  0  0  0
 30 36  1  0  0  0  0
 30 37  1  0  0  0  0
 31 32  1  0  0  0  0
 32 33  1  0  0  0  0
 32 34  1  0  0  0  0
 32 35  1  0  0  0  0
 41 42  2  0  0  0  0
 41 47  1  0  0  0  0
 42 43  1  0  0  0  0
 42 52  1  0  0  0  0
 43 44  1  0  0  0  0
 43 45  2  0  0  0  0
 45 46  1  0  0  0  0
 45 51  1  0  0  0  0
 46 47  2  0  0  0  0
 46 50  1  0  0  0  0
 47 48  1  0  0  0  0
 48 49  2  0  0  0  0
M  END
>  <MODEL>
       1

$$$$
best_conformers_45.pdb
 OpenBabel02042510453D

 60 64  0  0  1  0  0  0  0  0999 V2000
    6.0070    0.4400   29.6230 C   0  0  0  0  0  0  0  0  0  0  0  0
    6.1710   -0.6870   28.7190 N   0  0  0  0  0  0  0  0  0  0  0  0
    5.6470   -0.6160   27.4690 C   0  0  0  0  0  0  0  0  0  0  0  0
    4.9390    0.3180   27.1160 O   0  0  0  0  0  0  0  0  0  0  0  0
    5.9640   -1.7920   26.5300 C   0  0  0  0  0  0  0  0  0  0  0  0
    6.9630   -1.4770   25.5250 N   0  0  0  0  0  0  0  0  0  0  0  0
    6.5520   -0.7810   24.3140 C   0  0  0  0  0  0  0  0  0  0  0  0
    7.4780   -1.0770   23.1070 C   0  0  2  0  0  0  0  0  0  0  0  0
    7.0970   -0.0970   21.9800 C   0  0  0  0  0  0  0  0  0  0  0  0
    7.2900    1.1040   21.9610 O   0  0  0  0  0  0  0  0  0  0  0  0
    6.4490   -0.7940   20.9810 N   0  0  0  0  0  0  0  0  0  0  0  0
    5.8480   -0.1530   19.8660 C   0  0  0  0  0  0  0  0  0  0  0  0
    6.2590   -0.4570   18.5920 C   0  0  0  0  0  0  0  0  0  0  0  0
    5.7710    0.1160   17.4620 N   0  0  0  0  0  0  0  0  0  0  0  0
    4.8080    0.9970   17.6080 C   0  0  0  0  0  0  0  0  0  0  0  0
    4.2410    1.3660   18.8610 C   0  0  0  0  0  0  0  0  0  0  0  0
    3.1790    2.3100   18.9540 C   0  0  0  0  0  0  0  0  0  0  0  0
    2.6300    2.6220   20.1680 C   0  0  0  0  0  0  0  0  0  0  0  0
    3.1130    1.9980   21.3400 C   0  0  0  0  0  0  0  0  0  0  0  0
    4.1410    1.0920   21.2740 C   0  0  0  0  0  0  0  0  0  0  0  0
    4.7560    0.7650   20.0320 C   0  0  0  0  0  0  0  0  0  0  0  0
    4.5010    0.6240   22.1830 H   0  0  0  0  0  0  0  0  0  0  0  0
    2.6750    2.2500   22.3010 H   0  0  0  0  0  0  0  0  0  0  0  0
    1.8260    3.3500   20.2380 H   0  0  0  0  0  0  0  0  0  0  0  0
    2.8200    2.7770   18.0390 H   0  0  0  0  0  0  0  0  0  0  0  0
    4.4200    1.4590   16.7000 H   0  0  0  0  0  0  0  0  0  0  0  0
    7.0440   -1.1940   18.4310 H   0  0  0  0  0  0  0  0  0  0  0  0
    6.2850   -2.2120   21.2590 C   0  0  0  0  0  0  0  0  0  0  0  0
    7.2600   -2.4710   22.4100 C   0  0  2  0  0  0  0  0  0  0  0  0
    6.8860   -3.6610   23.2890 C   0  0  0  0  0  0  0  0  0  0  0  0
    5.5540   -3.5670   23.7470 O   0  0  0  0  0  0  0  0  0  0  0  0
    5.1870   -4.6860   24.5150 C   0  0  0  0  0  0  0  0  0  0  0  0
    5.2360   -5.6120   23.9230 H   0  0  0  0  0  0  0  0  0  0  0  0
    4.1570   -4.5300   24.8470 H   0  0  0  0  0  0  0  0  0  0  0  0
    5.8380   -4.8090   25.3960 H   0  0  0  0  0  0  0  0  0  0  0  0
    7.5760   -3.7070   24.1420 H   0  0  0  0  0  0  0  0  0  0  0  0
    7.0070   -4.5970   22.7200 H   0  0  0  0  0  0  0  0  0  0  0  0
    8.2430   -2.7200   21.9870 H   0  0  0  0  0  0  0  0  0  0  0  0
    6.5230   -2.7890   20.3660 H   0  0  0  0  0  0  0  0  0  0  0  0
    5.2520   -2.4480   21.5430 H   0  0  0  0  0  0  0  0  0  0  0  0
    8.9170   -0.9010   23.5670 C   0  0  0  0  0  0  0  0  0  0  0  0
    9.9220   -0.6150   22.6330 C   0  0  0  0  0  0  0  0  0  0  0  0
   11.2400   -0.5200   23.0430 C   0  0  0  0  0  0  0  0  0  0  0  0
   12.4820   -0.1340   21.8900 Cl  0  0  0  0  0  0  0  0  0  0  0  0
   11.6010   -0.7280   24.3730 C   0  0  0  0  0  0  0  0  0  0  0  0
   10.6160   -1.0450   25.2910 C   0  0  0  0  0  0  0  0  0  0  0  0
    9.2830   -1.1380   24.8960 C   0  0  0  0  0  0  0  0  0  0  0  0
    8.2700   -1.5730   25.9020 C   0  0  0  0  0  0  0  0  0  0  0  0
    8.5790   -2.0230   26.9930 O   0  0  0  0  0  0  0  0  0  0  0  0
   10.8550   -1.2540   26.3280 H   0  0  0  0  0  0  0  0  0  0  0  0
   12.6440   -0.6570   24.6620 H   0  0  0  0  0  0  0  0  0  0  0  0
    9.6750   -0.4480   21.5890 H   0  0  0  0  0  0  0  0  0  0  0  0
    6.5670    0.3070   24.4800 H   0  0  0  0  0  0  0  0  0  0  0  0
    5.5330   -1.1090   24.0800 H   0  0  0  0  0  0  0  0  0  0  0  0
    5.0360   -2.0350   26.0060 H   0  0  0  0  0  0  0  0  0  0  0  0
    6.3010   -2.6710   27.0910 H   0  0  0  0  0  0  0  0  0  0  0  0
    6.8250   -1.4280   28.9380 H   0  0  0  0  0  0  0  0  0  0  0  0
    4.9460    0.6160   29.8460 H   0  0  0  0  0  0  0  0  0  0  0  0
    6.4030    1.3650   29.1800 H   0  0  0  0  0  0  0  0  0  0  0  0
    6.5440    0.2200   30.5510 H   0  0  0  0  0  0  0  0  0  0  0  0
  1  2  1  0  0  0  0
  1 58  1  0  0  0  0
  1 59  1  0  0  0  0
  1 60  1  0  0  0  0
  2  3  1  0  0  0  0
  2 57  1  0  0  0  0
  3  4  2  0  0  0  0
  3  5  1  0  0  0  0
  5  6  1  0  0  0  0
  5 55  1  0  0  0  0
  5 56  1  0  0  0  0
  6  7  1  0  0  0  0
  6 48  1  0  0  0  0
  7  8  1  0  0  0  0
  7 53  1  0  0  0  0
  7 54  1  0  0  0  0
  8  9  1  6  0  0  0
  8 29  1  0  0  0  0
  8 41  1  0  0  0  0
  9 10  2  0  0  0  0
  9 11  1  0  0  0  0
 11 12  1  0  0  0  0
 11 28  1  0  0  0  0
 12 13  2  0  0  0  0
 12 21  1  0  0  0  0
 13 14  1  0  0  0  0
 13 27  1  0  0  0  0
 14 15  2  0  0  0  0
 15 16  1  0  0  0  0
 15 26  1  0  0  0  0
 16 17  2  0  0  0  0
 16 21  1  0  0  0  0
 17 18  1  0  0  0  0
 17 25  1  0  0  0  0
 18 19  2  0  0  0  0
 18 24  1  0  0  0  0
 19 20  1  0  0  0  0
 19 23  1  0  0  0  0
 20 21  2  0  0  0  0
 20 22  1  0  0  0  0
 28 29  1  0  0  0  0
 28 39  1  0  0  0  0
 28 40  1  0  0  0  0
 29 30  1  0  0  0  0
 29 38  1  6  0  0  0
 30 31  1  0  0  0  0
 30 36  1  0  0  0  0
 30 37  1  0  0  0  0
 31 32  1  0  0  0  0
 32 33  1  0  0  0  0
 32 34  1  0  0  0  0
 32 35  1  0  0  0  0
 41 42  2  0  0  0  0
 41 47  1  0  0  0  0
 42 43  1  0  0  0  0
 42 52  1  0  0  0  0
 43 44  1  0  0  0  0
 43 45  2  0  0  0  0
 45 46  1  0  0  0  0
 45 51  1  0  0  0  0
 46 47  2  0  0  0  0
 46 50  1  0  0  0  0
 47 48  1  0  0  0  0
 48 49  2  0  0  0  0
M  END
>  <MODEL>
       2

$$$$
best_conformers_45.pdb
 OpenBabel02042510453D

 60 64  0  0  1  0  0  0  0  0999 V2000
    5.0200   -8.2190   25.4470 C   0  0  0  0  0  0  0  0  0  0  0  0
    4.4930   -7.0410   24.7890 N   0  0  0  0  0  0  0  0  0  0  0  0
    5.1740   -6.5420   23.7330 C   0  0  0  0  0  0  0  0  0  0  0  0
    6.1910   -7.0640   23.2980 O   0  0  0  0  0  0  0  0  0  0  0  0
    4.5760   -5.2700   23.1160 C   0  0  0  0  0  0  0  0  0  0  0  0
    5.1390   -4.0540   23.6580 N   0  0  0  0  0  0  0  0  0  0  0  0
    6.4650   -3.6430   23.2360 C   0  0  0  0  0  0  0  0  0  0  0  0
    6.5390   -2.1190   22.9820 C   0  0  2  0  0  0  0  0  0  0  0  0
    5.6820   -1.7460   21.7480 C   0  0  0  0  0  0  0  0  0  0  0  0
    4.5590   -2.1290   21.5050 O   0  0  0  0  0  0  0  0  0  0  0  0
    6.3970   -0.8740   20.9590 N   0  0  0  0  0  0  0  0  0  0  0  0
    5.8010   -0.2100   19.8540 C   0  0  0  0  0  0  0  0  0  0  0  0
    6.2570   -0.4600   18.5840 C   0  0  0  0  0  0  0  0  0  0  0  0
    5.7840    0.1330   17.4610 N   0  0  0  0  0  0  0  0  0  0  0  0
    4.8080    0.9990   17.6090 C   0  0  0  0  0  0  0  0  0  0  0  0
    4.2380    1.3620   18.8640 C   0  0  0  0  0  0  0  0  0  0  0  0
    3.1910    2.3210   18.9580 C   0  0  0  0  0  0  0  0  0  0  0  0
    2.6770    2.6700   20.1760 C   0  0  0  0  0  0  0  0  0  0  0  0
    3.1980    2.0850   21.3550 C   0  0  0  0  0  0  0  0  0  0  0  0
    4.2130    1.1620   21.2930 C   0  0  0  0  0  0  0  0  0  0  0  0
    4.7500    0.7530   20.0340 C   0  0  0  0  0  0  0  0  0  0  0  0
    4.5990    0.7250   22.2150 H   0  0  0  0  0  0  0  0  0  0  0  0
    2.7810    2.3700   22.3170 H   0  0  0  0  0  0  0  0  0  0  0  0
    1.8760    3.4010   20.2470 H   0  0  0  0  0  0  0  0  0  0  0  0
    2.8190    2.7740   18.0400 H   0  0  0  0  0  0  0  0  0  0  0  0
    4.4170    1.4570   16.7010 H   0  0  0  0  0  0  0  0  0  0  0  0
    7.0510   -1.1890   18.4270 H   0  0  0  0  0  0  0  0  0  0  0  0
    7.7460   -0.6040   21.4220 C   0  0  0  0  0  0  0  0  0  0  0  0
    7.9680   -1.5870   22.5980 C   0  0  2  0  0  0  0  0  0  0  0  0
    9.0250   -2.6420   22.2010 C   0  0  0  0  0  0  0  0  0  0  0  0
    9.4540   -3.4310   23.2890 O   0  0  0  0  0  0  0  0  0  0  0  0
   10.6150   -2.9460   23.9190 C   0  0  0  0  0  0  0  0  0  0  0  0
   10.7690   -3.5670   24.8040 H   0  0  0  0  0  0  0  0  0  0  0  0
   10.5110   -1.8950   24.2290 H   0  0  0  0  0  0  0  0  0  0  0  0
   11.5010   -3.0150   23.2680 H   0  0  0  0  0  0  0  0  0  0  0  0
    8.6130   -3.3180   21.4430 H   0  0  0  0  0  0  0  0  0  0  0  0
    9.9040   -2.1360   21.7670 H   0  0  0  0  0  0  0  0  0  0  0  0
    8.3990   -1.0870   23.4720 H   0  0  0  0  0  0  0  0  0  0  0  0
    8.4610   -0.7690   20.6080 H   0  0  0  0  0  0  0  0  0  0  0  0
    7.8540    0.4500   21.7190 H   0  0  0  0  0  0  0  0  0  0  0  0
    5.9420   -1.4320   24.2130 C   0  0  0  0  0  0  0  0  0  0  0  0
    6.2350   -0.0890   24.4860 C   0  0  0  0  0  0  0  0  0  0  0  0
    5.6540    0.5400   25.5740 C   0  0  0  0  0  0  0  0  0  0  0  0
    6.0250    2.2090   25.9020 Cl  0  0  0  0  0  0  0  0  0  0  0  0
    4.7690   -0.1270   26.4150 C   0  0  0  0  0  0  0  0  0  0  0  0
    4.4460   -1.4390   26.1290 C   0  0  0  0  0  0  0  0  0  0  0  0
    5.0040   -2.0860   25.0310 C   0  0  0  0  0  0  0  0  0  0  0  0
    4.5180   -3.4710   24.7160 C   0  0  0  0  0  0  0  0  0  0  0  0
    3.6200   -4.0430   25.3250 O   0  0  0  0  0  0  0  0  0  0  0  0
    3.7360   -1.9970   26.7270 H   0  0  0  0  0  0  0  0  0  0  0  0
    4.3350    0.3940   27.2600 H   0  0  0  0  0  0  0  0  0  0  0  0
    6.8930    0.5010   23.8540 H   0  0  0  0  0  0  0  0  0  0  0  0
    6.6880   -4.1910   22.3230 H   0  0  0  0  0  0  0  0  0  0  0  0
    7.2100   -3.9110   23.9940 H   0  0  0  0  0  0  0  0  0  0  0  0
    3.4900   -5.2210   23.2510 H   0  0  0  0  0  0  0  0  0  0  0  0
    4.8060   -5.2950   22.0490 H   0  0  0  0  0  0  0  0  0  0  0  0
    3.6580   -6.5650   25.1060 H   0  0  0  0  0  0  0  0  0  0  0  0
    4.3450   -8.5040   26.2570 H   0  0  0  0  0  0  0  0  0  0  0  0
    5.1050   -9.0230   24.7130 H   0  0  0  0  0  0  0  0  0  0  0  0
    6.0250   -8.0310   25.8520 H   0  0  0  0  0  0  0  0  0  0  0  0
  1  2  1  0  0  0  0
  1 58  1  0  0  0  0
  1 59  1  0  0  0  0
  1 60  1  0  0  0  0
  2  3  1  0  0  0  0
  2 57  1  0  0  0  0
  3  4  2  0  0  0  0
  3  5  1  0  0  0  0
  5  6  1  0  0  0  0
  5 55  1  0  0  0  0
  5 56  1  0  0  0  0
  6  7  1  0  0  0  0
  6 48  1  0  0  0  0
  7  8  1  0  0  0  0
  7 53  1  0  0  0  0
  7 54  1  0  0  0  0
  8  9  1  6  0  0  0
  8 29  1  0  0  0  0
  8 41  1  0  0  0  0
  9 10  2  0  0  0  0
  9 11  1  0  0  0  0
 11 12  1  0  0  0  0
 11 28  1  0  0  0  0
 12 13  2  0  0  0  0
 12 21  1  0  0  0  0
 13 14  1  0  0  0  0
 13 27  1  0  0  0  0
 14 15  2  0  0  0  0
 15 16  1  0  0  0  0
 15 26  1  0  0  0  0
 16 17  2  0  0  0  0
 16 21  1  0  0  0  0
 17 18  1  0  0  0  0
 17 25  1  0  0  0  0
 18 19  2  0  0  0  0
 18 24  1  0  0  0  0
 19 20  1  0  0  0  0
 19 23  1  0  0  0  0
 20 21  2  0  0  0  0
 20 22  1  0  0  0  0
 28 29  1  0  0  0  0
 28 39  1  0  0  0  0
 28 40  1  0  0  0  0
 29 30  1  0  0  0  0
 29 38  1  1  0  0  0
 30 31  1  0  0  0  0
 30 36  1  0  0  0  0
 30 37  1  0  0  0  0
 31 32  1  0  0  0  0
 32 33  1  0  0  0  0
 32 34  1  0  0  0  0
 32 35  1  0  0  0  0
 41 42  2  0  0  0  0
 41 47  1  0  0  0  0
 42 43  1  0  0  0  0
 42 52  1  0  0  0  0
 43 44  1  0  0  0  0
 43 45  2  0  0  0  0
 45 46  1  0  0  0  0
 45 51  1  0  0  0  0
 46 47  2  0  0  0  0
 46 50  1  0  0  0  0
 47 48  1  0  0  0  0
 48 49  2  0  0  0  0
M  END
>  <MODEL>
       3

$$$$
best_conformers_45.pdb
 OpenBabel02042510453D

 60 64  0  0  1  0  0  0  0  0999 V2000
    5.5880    0.1660   29.5690 C   0  0  0  0  0  0  0  0  0  0  0  0
    5.9620   -0.8960   28.6490 N   0  0  0  0  0  0  0  0  0  0  0  0
    5.4640   -0.8880   27.3870 C   0  0  0  0  0  0  0  0  0  0  0  0
    4.6220   -0.0790   27.0230 O   0  0  0  0  0  0  0  0  0  0  0  0
    5.9790   -1.9880   26.4480 C   0  0  0  0  0  0  0  0  0  0  0  0
    6.9710   -1.5290   25.4910 N   0  0  0  0  0  0  0  0  0  0  0  0
    6.5520   -0.8150   24.2980 C   0  0  0  0  0  0  0  0  0  0  0  0
    7.4930   -1.0840   23.0910 C   0  0  2  0  0  0  0  0  0  0  0  0
    7.1000   -0.0950   21.9770 C   0  0  0  0  0  0  0  0  0  0  0  0
    7.2810    1.1050   21.9700 O   0  0  0  0  0  0  0  0  0  0  0  0
    6.4530   -0.7950   20.9790 N   0  0  0  0  0  0  0  0  0  0  0  0
    5.8480   -0.1540   19.8670 C   0  0  0  0  0  0  0  0  0  0  0  0
    6.2600   -0.4570   18.5920 C   0  0  0  0  0  0  0  0  0  0  0  0
    5.7710    0.1160   17.4640 N   0  0  0  0  0  0  0  0  0  0  0  0
    4.8080    0.9960   17.6090 C   0  0  0  0  0  0  0  0  0  0  0  0
    4.2410    1.3660   18.8620 C   0  0  0  0  0  0  0  0  0  0  0  0
    3.1790    2.3090   18.9550 C   0  0  0  0  0  0  0  0  0  0  0  0
    2.6300    2.6220   20.1680 C   0  0  0  0  0  0  0  0  0  0  0  0
    3.1130    1.9980   21.3410 C   0  0  0  0  0  0  0  0  0  0  0  0
    4.1400    1.0910   21.2750 C   0  0  0  0  0  0  0  0  0  0  0  0
    4.7560    0.7650   20.0330 C   0  0  0  0  0  0  0  0  0  0  0  0
    4.5000    0.6240   22.1840 H   0  0  0  0  0  0  0  0  0  0  0  0
    2.6750    2.2500   22.3020 H   0  0  0  0  0  0  0  0  0  0  0  0
    1.8260    3.3510   20.2380 H   0  0  0  0  0  0  0  0  0  0  0  0
    2.8200    2.7770   18.0390 H   0  0  0  0  0  0  0  0  0  0  0  0
    4.4210    1.4590   16.7010 H   0  0  0  0  0  0  0  0  0  0  0  0
    7.0450   -1.1940   18.4300 H   0  0  0  0  0  0  0  0  0  0  0  0
    6.3020   -2.2150   21.2530 C   0  0  0  0  0  0  0  0  0  0  0  0
    7.2900   -2.4760   22.4000 C   0  0  2  0  0  0  0  0  0  0  0  0
    6.8640   -3.6210   23.3190 C   0  0  0  0  0  0  0  0  0  0  0  0
    6.8430   -4.8220   22.5830 O   0  0  0  0  0  0  0  0  0  0  0  0
    6.4410   -5.9040   23.3830 C   0  0  0  0  0  0  0  0  0  0  0  0
    5.4240   -5.7580   23.7790 H   0  0  0  0  0  0  0  0  0  0  0  0
    7.1140   -6.0480   24.2420 H   0  0  0  0  0  0  0  0  0  0  0  0
    6.4570   -6.8030   22.7630 H   0  0  0  0  0  0  0  0  0  0  0  0
    7.5620   -3.7140   24.1630 H   0  0  0  0  0  0  0  0  0  0  0  0
    5.8640   -3.4290   23.7450 H   0  0  0  0  0  0  0  0  0  0  0  0
    8.2610   -2.7570   21.9730 H   0  0  0  0  0  0  0  0  0  0  0  0
    5.2660   -2.4550   21.5340 H   0  0  0  0  0  0  0  0  0  0  0  0
    6.5290   -2.7880   20.3570 H   0  0  0  0  0  0  0  0  0  0  0  0
    8.9240   -0.8840   23.5560 C   0  0  0  0  0  0  0  0  0  0  0  0
    9.9290   -0.6020   22.6220 C   0  0  0  0  0  0  0  0  0  0  0  0
   11.2430   -0.4800   23.0400 C   0  0  0  0  0  0  0  0  0  0  0  0
   12.4870   -0.0990   21.8870 Cl  0  0  0  0  0  0  0  0  0  0  0  0
   11.6000   -0.6560   24.3760 C   0  0  0  0  0  0  0  0  0  0  0  0
   10.6130   -0.9680   25.2940 C   0  0  0  0  0  0  0  0  0  0  0  0
    9.2840   -1.0890   24.8920 C   0  0  0  0  0  0  0  0  0  0  0  0
    8.2730   -1.5410   25.8910 C   0  0  0  0  0  0  0  0  0  0  0  0
    8.5890   -1.9540   26.9970 O   0  0  0  0  0  0  0  0  0  0  0  0
   10.8490   -1.1550   26.3350 H   0  0  0  0  0  0  0  0  0  0  0  0
   12.6410   -0.5650   24.6690 H   0  0  0  0  0  0  0  0  0  0  0  0
    9.6880   -0.4590   21.5740 H   0  0  0  0  0  0  0  0  0  0  0  0
    6.5620    0.2710   24.4780 H   0  0  0  0  0  0  0  0  0  0  0  0
    5.5210   -1.1180   24.0630 H   0  0  0  0  0  0  0  0  0  0  0  0
    6.4070   -2.8280   27.0030 H   0  0  0  0  0  0  0  0  0  0  0  0
    5.1000   -2.3280   25.8940 H   0  0  0  0  0  0  0  0  0  0  0  0
    6.7100   -1.5380   28.8770 H   0  0  0  0  0  0  0  0  0  0  0  0
    5.8330    1.1550   29.1540 H   0  0  0  0  0  0  0  0  0  0  0  0
    6.1310    0.0170   30.5060 H   0  0  0  0  0  0  0  0  0  0  0  0
    4.5060    0.1580   29.7640 H   0  0  0  0  0  0  0  0  0  0  0  0
  1  2  1  0  0  0  0
  1 58  1  0  0  0  0
  1 59  1  0  0  0  0
  1 60  1  0  0  0  0
  2  3  1  0  0  0  0
  2 57  1  0  0  0  0
  3  4  2  0  0  0  0
  3  5  1  0  0  0  0
  5  6  1  0  0  0  0
  5 55  1  0  0  0  0
  5 56  1  0  0  0  0
  6  7  1  0  0  0  0
  6 48  1  0  0  0  0
  7  8  1  0  0  0  0
  7 53  1  0  0  0  0
  7 54  1  0  0  0  0
  8  9  1  6  0  0  0
  8 29  1  0  0  0  0
  8 41  1  0  0  0  0
  9 10  2  0  0  0  0
  9 11  1  0  0  0  0
 11 12  1  0  0  0  0
 11 28  1  0  0  0  0
 12 13  2  0  0  0  0
 12 21  1  0  0  0  0
 13 14  1  0  0  0  0
 13 27  1  0  0  0  0
 14 15  2  0  0  0  0
 15 16  1  0  0  0  0
 15 26  1  0  0  0  0
 16 17  2  0  0  0  0
 16 21  1  0  0  0  0
 17 18  1  0  0  0  0
 17 25  1  0  0  0  0
 18 19  2  0  0  0  0
 18 24  1  0  0  0  0
 19 20  1  0  0  0  0
 19 23  1  0  0  0  0
 20 21  2  0  0  0  0
 20 22  1  0  0  0  0
 28 29  1  0  0  0  0
 28 39  1  0  0  0  0
 28 40  1  0  0  0  0
 29 30  1  0  0  0  0
 29 38  1  6  0  0  0
 30 31  1  0  0  0  0
 30 36  1  0  0  0  0
 30 37  1  0  0  0  0
 31 32  1  0  0  0  0
 32 33  1  0  0  0  0
 32 34  1  0  0  0  0
 32 35  1  0  0  0  0
 41 42  2  0  0  0  0
 41 47  1  0  0  0  0
 42 43  1  0  0  0  0
 42 52  1  0  0  0  0
 43 44  1  0  0  0  0
 43 45  2  0  0  0  0
 45 46  1  0  0  0  0
 45 51  1  0  0  0  0
 46 47  2  0  0  0  0
 46 50  1  0  0  0  0
 47 48  1  0  0  0  0
 48 49  2  0  0  0  0
M  END
>  <MODEL>
       4

$$$$
