best_conformers_38.pdb
 OpenBabel02042510453D

 72 77  0  0  1  0  0  0  0  0999 V2000
    1.7620   -5.8180   22.9850 C   0  0  0  0  0  0  0  0  0  0  0  0
    2.8720   -5.0570   22.3730 N   0  3  0  0  0  0  0  0  0  0  0  0
    4.1420   -5.8220   22.2400 C   0  0  0  0  0  0  0  0  0  0  0  0
    4.9880   -5.6590   23.5000 C   0  0  0  0  0  0  0  0  0  0  0  0
    5.2610   -4.2410   23.7150 N   0  0  0  0  0  0  0  0  0  0  0  0
    6.5010   -3.7190   23.1870 C   0  0  0  0  0  0  0  0  0  0  0  0
    6.4950   -2.1960   22.9170 C   0  0  2  0  0  0  0  0  0  0  0  0
    5.7220   -1.9030   21.6190 C   0  0  0  0  0  0  0  0  0  0  0  0
    4.7070   -2.4500   21.2320 O   0  0  0  0  0  0  0  0  0  0  0  0
    6.3950   -0.9180   20.9310 N   0  0  0  0  0  0  0  0  0  0  0  0
    5.8270   -0.2390   19.8300 C   0  0  0  0  0  0  0  0  0  0  0  0
    6.3230   -0.4480   18.5690 C   0  0  0  0  0  0  0  0  0  0  0  0
    5.8480    0.1370   17.4430 N   0  0  0  0  0  0  0  0  0  0  0  0
    4.8430    0.9700   17.5890 C   0  0  0  0  0  0  0  0  0  0  0  0
    4.2640    1.3150   18.8440 C   0  0  0  0  0  0  0  0  0  0  0  0
    3.2260    2.2790   18.9370 C   0  0  0  0  0  0  0  0  0  0  0  0
    2.7180    2.6330   20.1570 C   0  0  0  0  0  0  0  0  0  0  0  0
    3.2230    2.0400   21.3380 C   0  0  0  0  0  0  0  0  0  0  0  0
    4.2210    1.0960   21.2770 C   0  0  0  0  0  0  0  0  0  0  0  0
    4.7630    0.7040   20.0150 C   0  0  0  0  0  0  0  0  0  0  0  0
    4.6010    0.6580   22.2010 H   0  0  0  0  0  0  0  0  0  0  0  0
    2.8180    2.3480   22.2980 H   0  0  0  0  0  0  0  0  0  0  0  0
    1.9320    3.3810   20.2260 H   0  0  0  0  0  0  0  0  0  0  0  0
    2.8550    2.7280   18.0190 H   0  0  0  0  0  0  0  0  0  0  0  0
    4.4490    1.4400   16.6880 H   0  0  0  0  0  0  0  0  0  0  0  0
    7.1500   -1.1430   18.4290 H   0  0  0  0  0  0  0  0  0  0  0  0
    7.7340   -0.6480   21.4130 C   0  0  0  0  0  0  0  0  0  0  0  0
    7.9210   -1.6550   22.5720 C   0  0  2  0  0  0  0  0  0  0  0  0
    8.9100   -2.7600   22.1630 C   0  0  0  0  0  0  0  0  0  0  0  0
   10.1710   -2.2400   21.8250 O   0  0  0  0  0  0  0  0  0  0  0  0
   11.0970   -2.2040   22.8880 C   0  0  0  0  0  0  0  0  0  0  0  0
   12.1680   -1.2520   22.4180 C   0  0  0  0  0  0  0  0  0  0  0  0
   11.5670    0.1800   22.2790 C   0  0  0  0  0  0  0  0  0  0  0  0
   12.8250    0.8260   23.3730 S   0  0  0  0  0  0  0  0  0  0  0  0
   13.8250    1.5980   22.6550 O   0  0  0  0  0  0  0  0  0  0  0  0
   12.2100    1.3200   24.5930 O   0  0  0  0  0  0  0  0  0  0  0  0
   13.2740   -0.9250   23.4550 C   0  0  0  0  0  0  0  0  0  0  0  0
   14.3080   -1.0740   23.1370 H   0  0  0  0  0  0  0  0  0  0  0  0
   13.1240   -1.3320   24.4590 H   0  0  0  0  0  0  0  0  0  0  0  0
   10.5670    0.3070   22.7080 H   0  0  0  0  0  0  0  0  0  0  0  0
   11.5990    0.6500   21.3080 H   0  0  0  0  0  0  0  0  0  0  0  0
   12.5830   -1.6250   21.4740 H   0  0  0  0  0  0  0  0  0  0  0  0
   10.6320   -1.8220   23.8150 H   0  0  0  0  0  0  0  0  0  0  0  0
   11.5010   -3.2030   23.1270 H   0  0  0  0  0  0  0  0  0  0  0  0
    8.5440   -3.2650   21.2680 H   0  0  0  0  0  0  0  0  0  0  0  0
    9.0140   -3.5130   22.9560 H   0  0  0  0  0  0  0  0  0  0  0  0
    8.3540   -1.1600   23.4480 H   0  0  0  0  0  0  0  0  0  0  0  0
    8.4660   -0.8060   20.6110 H   0  0  0  0  0  0  0  0  0  0  0  0
    7.8300    0.4010   21.7290 H   0  0  0  0  0  0  0  0  0  0  0  0
    5.8610   -1.4760   24.1050 C   0  0  0  0  0  0  0  0  0  0  0  0
    6.1580   -0.1370   24.4060 C   0  0  0  0  0  0  0  0  0  0  0  0
    5.6160    0.4540   25.5350 C   0  0  0  0  0  0  0  0  0  0  0  0
    6.0360    2.0980   25.9190 Cl  0  0  0  0  0  0  0  0  0  0  0  0
    4.7540   -0.2360   26.3810 C   0  0  0  0  0  0  0  0  0  0  0  0
    4.4070   -1.5320   26.0500 C   0  0  0  0  0  0  0  0  0  0  0  0
    4.9360   -2.1480   24.9160 C   0  0  0  0  0  0  0  0  0  0  0  0
    4.4710   -3.5260   24.5550 C   0  0  0  0  0  0  0  0  0  0  0  0
    3.3970   -3.9910   24.9440 O   0  0  0  0  0  0  0  0  0  0  0  0
    3.7260   -2.0940   26.6780 H   0  0  0  0  0  0  0  0  0  0  0  0
    4.3620    0.2490   27.2690 H   0  0  0  0  0  0  0  0  0  0  0  0
    6.8300    0.4560   23.7930 H   0  0  0  0  0  0  0  0  0  0  0  0
    6.7080   -4.2410   22.2500 H   0  0  0  0  0  0  0  0  0  0  0  0
    7.3040   -3.9490   23.8980 H   0  0  0  0  0  0  0  0  0  0  0  0
    5.9360   -6.1920   23.3780 H   0  0  0  0  0  0  0  0  0  0  0  0
    4.4890   -6.0470   24.3950 H   0  0  0  0  0  0  0  0  0  0  0  0
    4.6840   -5.4090   21.3870 H   0  0  0  0  0  0  0  0  0  0  0  0
    3.9230   -6.8730   22.0360 H   0  0  0  0  0  0  0  0  0  0  0  0
    2.5720   -4.6920   21.4480 H   0  0  0  0  0  0  0  0  0  0  0  0
    3.0390   -4.2240   22.9600 H   0  0  0  0  0  0  0  0  0  0  0  0
    1.6620   -6.8020   22.5280 H   0  0  0  0  0  0  0  0  0  0  0  0
    1.9360   -5.9530   24.0520 H   0  0  0  0  0  0  0  0  0  0  0  0
    0.8240   -5.2800   22.8520 H   0  0  0  0  0  0  0  0  0  0  0  0
  1  2  1  0  0  0  0
  1 70  1  0  0  0  0
  1 71  1  0  0  0  0
  1 72  1  0  0  0  0
  2  3  1  0  0  0  0
  2 68  1  0  0  0  0
  2 69  1  0  0  0  0
  3  4  1  0  0  0  0
  3 66  1  0  0  0  0
  3 67  1  0  0  0  0
  4  5  1  0  0  0  0
  4 64  1  0  0  0  0
  4 65  1  0  0  0  0
  5  6  1  0  0  0  0
  5 57  1  0  0  0  0
  6  7  1  0  0  0  0
  6 62  1  0  0  0  0
  6 63  1  0  0  0  0
  7  8  1  6  0  0  0
  7 28  1  0  0  0  0
  7 50  1  0  0  0  0
  8  9  2  0  0  0  0
  8 10  1  0  0  0  0
 10 11  1  0  0  0  0
 10 27  1  0  0  0  0
 11 12  2  0  0  0  0
 11 20  1  0  0  0  0
 12 13  1  0  0  0  0
 12 26  1  0  0  0  0
 13 14  2  0  0  0  0
 14 15  1  0  0  0  0
 14 25  1  0  0  0  0
 15 16  2  0  0  0  0
 15 20  1  0  0  0  0
 16 17  1  0  0  0  0
 16 24  1  0  0  0  0
 17 18  2  0  0  0  0
 17 23  1  0  0  0  0
 18 19  1  0  0  0  0
 18 22  1  0  0  0  0
 19 20  2  0  0  0  0
 19 21  1  0  0  0  0
 27 28  1  0  0  0  0
 27 48  1  0  0  0  0
 27 49  1  0  0  0  0
 28 29  1  0  0  0  0
 28 47  1  1  0  0  0
 29 30  1  0  0  0  0
 29 45  1  0  0  0  0
 29 46  1  0  0  0  0
 30 31  1  0  0  0  0
 31 32  1  0  0  0  0
 31 43  1  0  0  0  0
 31 44  1  0  0  0  0
 32 33  1  0  0  0  0
 32 37  1  0  0  0  0
 32 42  1  0  0  0  0
 33 34  1  0  0  0  0
 33 40  1  0  0  0  0
 33 41  1  0  0  0  0
 34 35  2  0  0  0  0
 34 36  2  0  0  0  0
 34 37  1  0  0  0  0
 37 38  1  0  0  0  0
 37 39  1  0  0  0  0
 50 51  2  0  0  0  0
 50 56  1  0  0  0  0
 51 52  1  0  0  0  0
 51 61  1  0  0  0  0
 52 53  1  0  0  0  0
 52 54  2  0  0  0  0
 54 55  1  0  0  0  0
 54 60  1  0  0  0  0
 55 56  2  0  0  0  0
 55 59  1  0  0  0  0
 56 57  1  0  0  0  0
 57 58  2  0  0  0  0
M  CHG  1   2   1
M  END
>  <MODEL>
       1

$$$$
best_conformers_38.pdb
 OpenBabel02042510453D

 72 77  0  0  1  0  0  0  0  0999 V2000
    4.0440   -7.3970   25.2710 C   0  0  0  0  0  0  0  0  0  0  0  0
    5.2380   -6.6650   24.7850 N   0  3  0  0  0  0  0  0  0  0  0  0
    5.3050   -6.5320   23.2990 C   0  0  0  0  0  0  0  0  0  0  0  0
    4.6820   -5.2050   22.8630 C   0  0  0  0  0  0  0  0  0  0  0  0
    5.2790   -4.0880   23.5780 N   0  0  0  0  0  0  0  0  0  0  0  0
    6.5750   -3.5950   23.1760 C   0  0  0  0  0  0  0  0  0  0  0  0
    6.5300   -2.0790   22.9250 C   0  0  2  0  0  0  0  0  0  0  0  0
    5.7890   -1.8390   21.5950 C   0  0  0  0  0  0  0  0  0  0  0  0
    4.7900   -2.3960   21.1830 O   0  0  0  0  0  0  0  0  0  0  0  0
    6.4740   -0.8840   20.8850 N   0  0  0  0  0  0  0  0  0  0  0  0
    5.8610   -0.2210   19.7900 C   0  0  0  0  0  0  0  0  0  0  0  0
    6.3340   -0.4380   18.5230 C   0  0  0  0  0  0  0  0  0  0  0  0
    5.8400    0.1370   17.3980 N   0  0  0  0  0  0  0  0  0  0  0  0
    4.8400    0.9740   17.5470 C   0  0  0  0  0  0  0  0  0  0  0  0
    4.2650    1.3110   18.8060 C   0  0  0  0  0  0  0  0  0  0  0  0
    3.2210    2.2680   18.9050 C   0  0  0  0  0  0  0  0  0  0  0  0
    2.7150    2.6170   20.1250 C   0  0  0  0  0  0  0  0  0  0  0  0
    3.2120    2.0070   21.2990 C   0  0  0  0  0  0  0  0  0  0  0  0
    4.2050    1.0590   21.2370 C   0  0  0  0  0  0  0  0  0  0  0  0
    4.7740    0.6970   19.9760 C   0  0  0  0  0  0  0  0  0  0  0  0
    4.5650    0.5970   22.1580 H   0  0  0  0  0  0  0  0  0  0  0  0
    2.8060    2.3030   22.2620 H   0  0  0  0  0  0  0  0  0  0  0  0
    1.9370    3.3720   20.2020 H   0  0  0  0  0  0  0  0  0  0  0  0
    2.8500    2.7280   17.9920 H   0  0  0  0  0  0  0  0  0  0  0  0
    4.4380    1.4400   16.6450 H   0  0  0  0  0  0  0  0  0  0  0  0
    7.1560   -1.1370   18.3770 H   0  0  0  0  0  0  0  0  0  0  0  0
    7.7470   -0.4980   21.4640 C   0  0  0  0  0  0  0  0  0  0  0  0
    7.9290   -1.4440   22.6770 C   0  0  2  0  0  0  0  0  0  0  0  0
    9.0620   -2.4420   22.4720 C   0  0  0  0  0  0  0  0  0  0  0  0
   10.2750   -1.8100   22.8190 O   0  0  0  0  0  0  0  0  0  0  0  0
   11.3160   -2.7380   22.6600 C   0  0  0  0  0  0  0  0  0  0  0  0
   12.6810   -2.0950   22.5610 C   0  0  0  0  0  0  0  0  0  0  0  0
   12.7370   -1.1580   21.3210 C   0  0  0  0  0  0  0  0  0  0  0  0
   12.9770    0.2800   22.3940 S   0  0  0  0  0  0  0  0  0  0  0  0
   14.2710    0.9270   22.2090 O   0  0  0  0  0  0  0  0  0  0  0  0
   11.7610    1.0690   22.4860 O   0  0  0  0  0  0  0  0  0  0  0  0
   13.0360   -1.0460   23.6390 C   0  0  0  0  0  0  0  0  0  0  0  0
   12.2920   -0.8730   24.4160 H   0  0  0  0  0  0  0  0  0  0  0  0
   14.0520   -1.1070   24.0350 H   0  0  0  0  0  0  0  0  0  0  0  0
   13.5670   -1.2940   20.6300 H   0  0  0  0  0  0  0  0  0  0  0  0
   11.7850   -1.1360   20.7850 H   0  0  0  0  0  0  0  0  0  0  0  0
   13.4070   -2.9100   22.5240 H   0  0  0  0  0  0  0  0  0  0  0  0
   11.1290   -3.1880   21.6850 H   0  0  0  0  0  0  0  0  0  0  0  0
   11.2800   -3.5120   23.4450 H   0  0  0  0  0  0  0  0  0  0  0  0
    9.0840   -2.8090   21.4270 H   0  0  0  0  0  0  0  0  0  0  0  0
    8.9350   -3.3200   23.1140 H   0  0  0  0  0  0  0  0  0  0  0  0
    8.2440   -0.8830   23.5630 H   0  0  0  0  0  0  0  0  0  0  0  0
    7.7380    0.5570   21.7700 H   0  0  0  0  0  0  0  0  0  0  0  0
    8.5510   -0.6120   20.7280 H   0  0  0  0  0  0  0  0  0  0  0  0
    5.8320   -1.4220   24.1190 C   0  0  0  0  0  0  0  0  0  0  0  0
    6.0400   -0.0630   24.4130 C   0  0  0  0  0  0  0  0  0  0  0  0
    5.5070    0.4940   25.5670 C   0  0  0  0  0  0  0  0  0  0  0  0
    5.8820    2.1490   25.9780 Cl  0  0  0  0  0  0  0  0  0  0  0  0
    4.6990   -0.2510   26.4250 C   0  0  0  0  0  0  0  0  0  0  0  0
    4.4430   -1.5740   26.1170 C   0  0  0  0  0  0  0  0  0  0  0  0
    5.0140   -2.1600   24.9860 C   0  0  0  0  0  0  0  0  0  0  0  0
    4.7460   -3.6040   24.7300 C   0  0  0  0  0  0  0  0  0  0  0  0
    4.1080   -4.3180   25.5090 O   0  0  0  0  0  0  0  0  0  0  0  0
    3.8000   -2.1900   26.7390 H   0  0  0  0  0  0  0  0  0  0  0  0
    4.2790    0.2100   27.3120 H   0  0  0  0  0  0  0  0  0  0  0  0
    6.6300    0.5730   23.7580 H   0  0  0  0  0  0  0  0  0  0  0  0
    7.2840   -3.7920   23.9930 H   0  0  0  0  0  0  0  0  0  0  0  0
    6.9000   -4.1210   22.2740 H   0  0  0  0  0  0  0  0  0  0  0  0
    3.6080   -5.1930   23.0810 H   0  0  0  0  0  0  0  0  0  0  0  0
    4.8160   -5.0230   21.7900 H   0  0  0  0  0  0  0  0  0  0  0  0
    6.3510   -6.5930   22.9810 H   0  0  0  0  0  0  0  0  0  0  0  0
    4.7750   -7.3660   22.8310 H   0  0  0  0  0  0  0  0  0  0  0  0
    5.1600   -5.7180   25.1920 H   0  0  0  0  0  0  0  0  0  0  0  0
    6.1050   -7.0950   25.1450 H   0  0  0  0  0  0  0  0  0  0  0  0
    3.2230   -6.6910   25.4020 H   0  0  0  0  0  0  0  0  0  0  0  0
    3.7410   -8.1660   24.5570 H   0  0  0  0  0  0  0  0  0  0  0  0
    4.2510   -7.8710   26.2310 H   0  0  0  0  0  0  0  0  0  0  0  0
  1  2  1  0  0  0  0
  1 70  1  0  0  0  0
  1 71  1  0  0  0  0
  1 72  1  0  0  0  0
  2  3  1  0  0  0  0
  2 68  1  0  0  0  0
  2 69  1  0  0  0  0
  3  4  1  0  0  0  0
  3 66  1  0  0  0  0
  3 67  1  0  0  0  0
  4  5  1  0  0  0  0
  4 64  1  0  0  0  0
  4 65  1  0  0  0  0
  5  6  1  0  0  0  0
  5 57  1  0  0  0  0
  6  7  1  0  0  0  0
  6 62  1  0  0  0  0
  6 63  1  0  0  0  0
  7  8  1  6  0  0  0
  7 28  1  0  0  0  0
  7 50  1  0  0  0  0
  8  9  2  0  0  0  0
  8 10  1  0  0  0  0
 10 11  1  0  0  0  0
 10 27  1  0  0  0  0
 11 12  2  0  0  0  0
 11 20  1  0  0  0  0
 12 13  1  0  0  0  0
 12 26  1  0  0  0  0
 13 14  2  0  0  0  0
 14 15  1  0  0  0  0
 14 25  1  0  0  0  0
 15 16  2  0  0  0  0
 15 20  1  0  0  0  0
 16 17  1  0  0  0  0
 16 24  1  0  0  0  0
 17 18  2  0  0  0  0
 17 23  1  0  0  0  0
 18 19  1  0  0  0  0
 18 22  1  0  0  0  0
 19 20  2  0  0  0  0
 19 21  1  0  0  0  0
 27 28  1  0  0  0  0
 27 48  1  0  0  0  0
 27 49  1  0  0  0  0
 28 29  1  0  0  0  0
 28 47  1  1  0  0  0
 29 30  1  0  0  0  0
 29 45  1  0  0  0  0
 29 46  1  0  0  0  0
 30 31  1  0  0  0  0
 31 32  1  0  0  0  0
 31 43  1  0  0  0  0
 31 44  1  0  0  0  0
 32 33  1  0  0  0  0
 32 37  1  0  0  0  0
 32 42  1  0  0  0  0
 33 34  1  0  0  0  0
 33 40  1  0  0  0  0
 33 41  1  0  0  0  0
 34 35  2  0  0  0  0
 34 36  2  0  0  0  0
 34 37  1  0  0  0  0
 37 38  1  0  0  0  0
 37 39  1  0  0  0  0
 50 51  2  0  0  0  0
 50 56  1  0  0  0  0
 51 52  1  0  0  0  0
 51 61  1  0  0  0  0
 52 53  1  0  0  0  0
 52 54  2  0  0  0  0
 54 55  1  0  0  0  0
 54 60  1  0  0  0  0
 55 56  2  0  0  0  0
 55 59  1  0  0  0  0
 56 57  1  0  0  0  0
 57 58  2  0  0  0  0
M  CHG  1   2   1
M  END
>  <MODEL>
       2

$$$$
best_conformers_38.pdb
 OpenBabel02042510453D

 72 77  0  0  1  0  0  0  0  0999 V2000
    3.9450   -7.3560   25.3090 C   0  0  0  0  0  0  0  0  0  0  0  0
    5.2340   -6.8030   24.8350 N   0  3  0  0  0  0  0  0  0  0  0  0
    5.2560   -6.5500   23.3580 C   0  0  0  0  0  0  0  0  0  0  0  0
    4.5780   -5.2140   23.0500 C   0  0  0  0  0  0  0  0  0  0  0  0
    5.2450   -4.1340   23.7630 N   0  0  0  0  0  0  0  0  0  0  0  0
    6.5080   -3.6540   23.2340 C   0  0  0  0  0  0  0  0  0  0  0  0
    6.5200   -2.1350   22.9530 C   0  0  2  0  0  0  0  0  0  0  0  0
    5.7020   -1.8150   21.6900 C   0  0  0  0  0  0  0  0  0  0  0  0
    4.6270   -2.2810   21.3650 O   0  0  0  0  0  0  0  0  0  0  0  0
    6.4010   -0.8880   20.9560 N   0  0  0  0  0  0  0  0  0  0  0  0
    5.8200   -0.2100   19.8640 C   0  0  0  0  0  0  0  0  0  0  0  0
    6.2930   -0.4560   18.6010 C   0  0  0  0  0  0  0  0  0  0  0  0
    5.8190    0.1170   17.4700 N   0  0  0  0  0  0  0  0  0  0  0  0
    4.8330    0.9720   17.6230 C   0  0  0  0  0  0  0  0  0  0  0  0
    4.2610    1.3290   18.8780 C   0  0  0  0  0  0  0  0  0  0  0  0
    3.2200    2.2890   18.9570 C   0  0  0  0  0  0  0  0  0  0  0  0
    2.7020    2.6460   20.1700 C   0  0  0  0  0  0  0  0  0  0  0  0
    3.2070    2.0700   21.3600 C   0  0  0  0  0  0  0  0  0  0  0  0
    4.2170    1.1390   21.3170 C   0  0  0  0  0  0  0  0  0  0  0  0
    4.7610    0.7330   20.0570 C   0  0  0  0  0  0  0  0  0  0  0  0
    4.5970    0.7250   22.2530 H   0  0  0  0  0  0  0  0  0  0  0  0
    2.7900    2.3870   22.3120 H   0  0  0  0  0  0  0  0  0  0  0  0
    1.9120    3.3890   20.2240 H   0  0  0  0  0  0  0  0  0  0  0  0
    2.8630    2.7330   18.0310 H   0  0  0  0  0  0  0  0  0  0  0  0
    4.4360    1.4370   16.7220 H   0  0  0  0  0  0  0  0  0  0  0  0
    7.1020   -1.1740   18.4800 H   0  0  0  0  0  0  0  0  0  0  0  0
    7.7510   -0.6260   21.4080 C   0  0  0  0  0  0  0  0  0  0  0  0
    7.9480   -1.6110   22.5850 C   0  0  2  0  0  0  0  0  0  0  0  0
    8.9460   -2.7140   22.1920 C   0  0  0  0  0  0  0  0  0  0  0  0
   10.2030   -2.1720   21.8770 O   0  0  0  0  0  0  0  0  0  0  0  0
   11.1240   -2.1400   22.9380 C   0  0  0  0  0  0  0  0  0  0  0  0
   12.1870   -1.1740   22.4980 C   0  0  0  0  0  0  0  0  0  0  0  0
   11.5990    0.2570   22.3670 C   0  0  0  0  0  0  0  0  0  0  0  0
   12.7990    0.8540   23.5540 S   0  0  0  0  0  0  0  0  0  0  0  0
   12.1840    1.2230   24.8120 O   0  0  0  0  0  0  0  0  0  0  0  0
   13.7850    1.6960   22.9000 O   0  0  0  0  0  0  0  0  0  0  0  0
   13.2360   -0.8910   23.5950 C   0  0  0  0  0  0  0  0  0  0  0  0
   14.2850   -1.0650   23.3610 H   0  0  0  0  0  0  0  0  0  0  0  0
   12.9630   -1.2990   24.5760 H   0  0  0  0  0  0  0  0  0  0  0  0
   11.7280    0.7540   21.4110 H   0  0  0  0  0  0  0  0  0  0  0  0
   10.5770    0.3410   22.7450 H   0  0  0  0  0  0  0  0  0  0  0  0
   12.6180   -1.5100   21.5520 H   0  0  0  0  0  0  0  0  0  0  0  0
   11.5540   -3.1330   23.1410 H   0  0  0  0  0  0  0  0  0  0  0  0
   10.6580   -1.7780   23.8730 H   0  0  0  0  0  0  0  0  0  0  0  0
    8.6030   -3.2230   21.2870 H   0  0  0  0  0  0  0  0  0  0  0  0
    9.0490   -3.4700   22.9840 H   0  0  0  0  0  0  0  0  0  0  0  0
    8.3780   -1.1010   23.4560 H   0  0  0  0  0  0  0  0  0  0  0  0
    8.4650   -0.8020   20.5940 H   0  0  0  0  0  0  0  0  0  0  0  0
    7.8600    0.4290   21.7000 H   0  0  0  0  0  0  0  0  0  0  0  0
    5.9210   -1.4220   24.1640 C   0  0  0  0  0  0  0  0  0  0  0  0
    6.2330   -0.0870   24.4470 C   0  0  0  0  0  0  0  0  0  0  0  0
    5.6790    0.5400   25.5520 C   0  0  0  0  0  0  0  0  0  0  0  0
    6.1050    2.1900   25.8950 Cl  0  0  0  0  0  0  0  0  0  0  0  0
    4.7980   -0.1200   26.4070 C   0  0  0  0  0  0  0  0  0  0  0  0
    4.4630   -1.4250   26.1160 C   0  0  0  0  0  0  0  0  0  0  0  0
    5.0110   -2.0690   25.0090 C   0  0  0  0  0  0  0  0  0  0  0  0
    4.5740   -3.4740   24.7470 C   0  0  0  0  0  0  0  0  0  0  0  0
    3.6610   -4.0080   25.3750 O   0  0  0  0  0  0  0  0  0  0  0  0
    3.7690   -1.9920   26.7270 H   0  0  0  0  0  0  0  0  0  0  0  0
    4.3840    0.3850   27.2720 H   0  0  0  0  0  0  0  0  0  0  0  0
    6.9250    0.4780   23.8300 H   0  0  0  0  0  0  0  0  0  0  0  0
    7.3140   -3.8700   23.9490 H   0  0  0  0  0  0  0  0  0  0  0  0
    6.7070   -4.1930   22.3040 H   0  0  0  0  0  0  0  0  0  0  0  0
    4.5970   -4.9790   21.9820 H   0  0  0  0  0  0  0  0  0  0  0  0
    3.5390   -5.2210   23.3880 H   0  0  0  0  0  0  0  0  0  0  0  0
    6.3010   -6.5320   23.0520 H   0  0  0  0  0  0  0  0  0  0  0  0
    4.7570   -7.3680   22.8320 H   0  0  0  0  0  0  0  0  0  0  0  0
    5.3870   -5.8840   25.3070 H   0  0  0  0  0  0  0  0  0  0  0  0
    6.0090   -7.4460   25.0990 H   0  0  0  0  0  0  0  0  0  0  0  0
    3.6400   -8.1980   24.6810 H   0  0  0  0  0  0  0  0  0  0  0  0
    4.0520   -7.7020   26.3360 H   0  0  0  0  0  0  0  0  0  0  0  0
    3.1710   -6.5890   25.2700 H   0  0  0  0  0  0  0  0  0  0  0  0
  1  2  1  0  0  0  0
  1 70  1  0  0  0  0
  1 71  1  0  0  0  0
  1 72  1  0  0  0  0
  2  3  1  0  0  0  0
  2 68  1  0  0  0  0
  2 69  1  0  0  0  0
  3  4  1  0  0  0  0
  3 66  1  0  0  0  0
  3 67  1  0  0  0  0
  4  5  1  0  0  0  0
  4 64  1  0  0  0  0
  4 65  1  0  0  0  0
  5  6  1  0  0  0  0
  5 57  1  0  0  0  0
  6  7  1  0  0  0  0
  6 62  1  0  0  0  0
  6 63  1  0  0  0  0
  7  8  1  6  0  0  0
  7 28  1  0  0  0  0
  7 50  1  0  0  0  0
  8  9  2  0  0  0  0
  8 10  1  0  0  0  0
 10 11  1  0  0  0  0
 10 27  1  0  0  0  0
 11 12  2  0  0  0  0
 11 20  1  0  0  0  0
 12 13  1  0  0  0  0
 12 26  1  0  0  0  0
 13 14  2  0  0  0  0
 14 15  1  0  0  0  0
 14 25  1  0  0  0  0
 15 16  2  0  0  0  0
 15 20  1  0  0  0  0
 16 17  1  0  0  0  0
 16 24  1  0  0  0  0
 17 18  2  0  0  0  0
 17 23  1  0  0  0  0
 18 19  1  0  0  0  0
 18 22  1  0  0  0  0
 19 20  2  0  0  0  0
 19 21  1  0  0  0  0
 27 28  1  0  0  0  0
 27 48  1  0  0  0  0
 27 49  1  0  0  0  0
 28 29  1  0  0  0  0
 28 47  1  1  0  0  0
 29 30  1  0  0  0  0
 29 45  1  0  0  0  0
 29 46  1  0  0  0  0
 30 31  1  0  0  0  0
 31 32  1  0  0  0  0
 31 43  1  0  0  0  0
 31 44  1  0  0  0  0
 32 33  1  0  0  0  0
 32 37  1  0  0  0  0
 32 42  1  0  0  0  0
 33 34  1  0  0  0  0
 33 40  1  0  0  0  0
 33 41  1  0  0  0  0
 34 35  2  0  0  0  0
 34 36  2  0  0  0  0
 34 37  1  0  0  0  0
 37 38  1  0  0  0  0
 37 39  1  0  0  0  0
 50 51  2  0  0  0  0
 50 56  1  0  0  0  0
 51 52  1  0  0  0  0
 51 61  1  0  0  0  0
 52 53  1  0  0  0  0
 52 54  2  0  0  0  0
 54 55  1  0  0  0  0
 54 60  1  0  0  0  0
 55 56  2  0  0  0  0
 55 59  1  0  0  0  0
 56 57  1  0  0  0  0
 57 58  2  0  0  0  0
M  CHG  1   2   1
M  END
>  <MODEL>
       3

$$$$
