best_conformers_20.pdb
 OpenBabel02042510453D

 66 70  0  0  0  0  0  0  0  0999 V2000
   10.9540   -1.1230   26.5910 C   0  0  0  0  0  0  0  0  0  0  0  0
   10.0860   -1.5890   25.4260 C   0  0  0  0  0  0  0  0  0  0  0  0
   10.9950   -2.4680   24.5950 C   0  0  0  0  0  0  0  0  0  0  0  0
   11.0850   -3.6550   24.8190 O   0  0  0  0  0  0  0  0  0  0  0  0
   11.8710   -1.8360   23.6820 N   0  0  0  0  0  0  0  0  0  0  0  0
   13.2920   -2.0700   23.9340 C   0  0  0  0  0  0  0  0  0  0  0  0
   13.9020   -0.7410   24.3460 C   0  0  0  0  0  0  0  0  0  0  0  0
   13.8070    0.1920   23.1310 C   0  0  0  0  0  0  0  0  0  0  0  0
   12.3420    0.4340   22.8540 C   0  0  0  0  0  0  0  0  0  0  0  0
   11.7900    1.6610   22.4730 C   0  0  0  0  0  0  0  0  0  0  0  0
   10.4450    1.7740   22.1210 C   0  0  0  0  0  0  0  0  0  0  0  0
    9.6670    0.6150   22.0720 C   0  0  0  0  0  0  0  0  0  0  0  0
    8.3290    0.5870   21.6040 N   0  0  0  0  0  0  0  0  0  0  0  0
    7.8910   -0.5870   20.9790 C   0  0  0  0  0  0  0  0  0  0  0  0
    8.6730   -1.3470   20.4410 O   0  0  0  0  0  0  0  0  0  0  0  0
    6.4010   -0.8450   21.0100 C   0  0  0  0  0  0  0  0  0  0  0  0
    5.7780   -0.1880   19.8080 C   0  0  0  0  0  0  0  0  0  0  0  0
    6.2750   -0.4320   18.5500 C   0  0  0  0  0  0  0  0  0  0  0  0
    5.8060    0.1210   17.4100 N   0  0  0  0  0  0  0  0  0  0  0  0
    4.8170    0.9830   17.5380 C   0  0  0  0  0  0  0  0  0  0  0  0
    4.2430    1.3710   18.7800 C   0  0  0  0  0  0  0  0  0  0  0  0
    3.2120    2.3390   18.8820 C   0  0  0  0  0  0  0  0  0  0  0  0
    2.6940    2.6870   20.1040 C   0  0  0  0  0  0  0  0  0  0  0  0
    3.1950    2.0990   21.2800 C   0  0  0  0  0  0  0  0  0  0  0  0
    4.2050    1.1710   21.2110 C   0  0  0  0  0  0  0  0  0  0  0  0
    4.7360    0.7680   19.9590 C   0  0  0  0  0  0  0  0  0  0  0  0
    4.6060    0.7630   22.1340 H   0  0  0  0  0  0  0  0  0  0  0  0
    2.7830    2.3760   22.2470 H   0  0  0  0  0  0  0  0  0  0  0  0
    1.8970    3.4210   20.1720 H   0  0  0  0  0  0  0  0  0  0  0  0
    2.8470    2.8020   17.9700 H   0  0  0  0  0  0  0  0  0  0  0  0
    4.4210    1.4200   16.6220 H   0  0  0  0  0  0  0  0  0  0  0  0
    7.1230   -1.1070   18.4310 H   0  0  0  0  0  0  0  0  0  0  0  0
    6.2600   -1.9300   21.0040 H   0  0  0  0  0  0  0  0  0  0  0  0
    6.0160   -0.4550   21.9520 H   0  0  0  0  0  0  0  0  0  0  0  0
    7.4740    1.6590   21.8130 N   0  0  0  0  0  0  0  0  0  0  0  0
    7.2860    2.5510   20.6850 C   0  0  0  0  0  0  0  0  0  0  0  0
    8.0380    3.3510   20.6450 H   0  0  0  0  0  0  0  0  0  0  0  0
    6.2890    3.0000   20.7350 H   0  0  0  0  0  0  0  0  0  0  0  0
    7.3420    1.9760   19.7590 H   0  0  0  0  0  0  0  0  0  0  0  0
    7.2230    2.0760   23.1270 C   0  0  0  0  0  0  0  0  0  0  0  0
    6.7920    3.3790   23.4120 C   0  0  0  0  0  0  0  0  0  0  0  0
    6.4730    3.7420   24.7170 C   0  0  0  0  0  0  0  0  0  0  0  0
    6.5810    2.8430   25.7670 C   0  0  0  0  0  0  0  0  0  0  0  0
    7.0490    1.5680   25.4780 C   0  0  0  0  0  0  0  0  0  0  0  0
    7.2690    0.4340   26.7920 Cl  0  0  0  0  0  0  0  0  0  0  0  0
    7.3670    1.1700   24.1910 C   0  0  0  0  0  0  0  0  0  0  0  0
    7.7340    0.1640   24.0150 H   0  0  0  0  0  0  0  0  0  0  0  0
    6.3150    3.1180   26.7820 H   0  0  0  0  0  0  0  0  0  0  0  0
    6.1380    4.7570   24.9140 H   0  0  0  0  0  0  0  0  0  0  0  0
    6.7290    4.1270   22.6270 H   0  0  0  0  0  0  0  0  0  0  0  0
   10.1730   -0.5810   22.5590 C   0  0  0  0  0  0  0  0  0  0  0  0
   11.4760   -0.6540   23.0280 C   0  0  0  0  0  0  0  0  0  0  0  0
    9.5400   -1.4540   22.6550 H   0  0  0  0  0  0  0  0  0  0  0  0
   10.0310    2.7460   21.8780 H   0  0  0  0  0  0  0  0  0  0  0  0
   12.4210    2.5490   22.4440 H   0  0  0  0  0  0  0  0  0  0  0  0
   14.2760   -0.2970   22.2620 H   0  0  0  0  0  0  0  0  0  0  0  0
   14.3300    1.1410   23.2780 H   0  0  0  0  0  0  0  0  0  0  0  0
   13.3070   -0.2920   25.1480 H   0  0  0  0  0  0  0  0  0  0  0  0
   14.8950   -0.8960   24.7550 H   0  0  0  0  0  0  0  0  0  0  0  0
   13.7930   -2.4580   23.0380 H   0  0  0  0  0  0  0  0  0  0  0  0
   13.3380   -2.8580   24.6890 H   0  0  0  0  0  0  0  0  0  0  0  0
    9.7460   -0.6990   24.8970 H   0  0  0  0  0  0  0  0  0  0  0  0
    9.2090   -2.1640   25.7390 H   0  0  0  0  0  0  0  0  0  0  0  0
   11.8850   -0.6940   26.2250 H   0  0  0  0  0  0  0  0  0  0  0  0
   11.2200   -1.9430   27.2590 H   0  0  0  0  0  0  0  0  0  0  0  0
   10.4700   -0.3280   27.1420 H   0  0  0  0  0  0  0  0  0  0  0  0
  1  2  1  0  0  0  0
  1 64  1  0  0  0  0
  1 65  1  0  0  0  0
  1 66  1  0  0  0  0
  2  3  1  0  0  0  0
  2 62  1  0  0  0  0
  2 63  1  0  0  0  0
  3  4  2  0  0  0  0
  3  5  1  0  0  0  0
  5  6  1  0  0  0  0
  5 52  1  0  0  0  0
  6  7  1  0  0  0  0
  6 60  1  0  0  0  0
  6 61  1  0  0  0  0
  7  8  1  0  0  0  0
  7 58  1  0  0  0  0
  7 59  1  0  0  0  0
  8  9  1  0  0  0  0
  8 56  1  0  0  0  0
  8 57  1  0  0  0  0
  9 10  2  0  0  0  0
  9 52  1  0  0  0  0
 10 11  1  0  0  0  0
 10 55  1  0  0  0  0
 11 12  2  0  0  0  0
 11 54  1  0  0  0  0
 12 13  1  0  0  0  0
 12 51  1  0  0  0  0
 13 14  1  0  0  0  0
 13 35  1  0  0  0  0
 14 15  2  0  0  0  0
 14 16  1  0  0  0  0
 16 17  1  0  0  0  0
 16 33  1  0  0  0  0
 16 34  1  0  0  0  0
 17 18  2  0  0  0  0
 17 26  1  0  0  0  0
 18 19  1  0  0  0  0
 18 32  1  0  0  0  0
 19 20  2  0  0  0  0
 20 21  1  0  0  0  0
 20 31  1  0  0  0  0
 21 22  2  0  0  0  0
 21 26  1  0  0  0  0
 22 23  1  0  0  0  0
 22 30  1  0  0  0  0
 23 24  2  0  0  0  0
 23 29  1  0  0  0  0
 24 25  1  0  0  0  0
 24 28  1  0  0  0  0
 25 26  2  0  0  0  0
 25 27  1  0  0  0  0
 35 36  1  0  0  0  0
 35 40  1  0  0  0  0
 36 37  1  0  0  0  0
 36 38  1  0  0  0  0
 36 39  1  0  0  0  0
 40 41  2  0  0  0  0
 40 46  1  0  0  0  0
 41 42  1  0  0  0  0
 41 50  1  0  0  0  0
 42 43  2  0  0  0  0
 42 49  1  0  0  0  0
 43 44  1  0  0  0  0
 43 48  1  0  0  0  0
 44 45  1  0  0  0  0
 44 46  2  0  0  0  0
 46 47  1  0  0  0  0
 51 52  2  0  0  0  0
 51 53  1  0  0  0  0
M  END
>  <MODEL>
       1

$$$$
best_conformers_20.pdb
 OpenBabel02042510453D

 66 70  0  0  0  0  0  0  0  0999 V2000
    6.4270   -1.6360   28.1420 C   0  0  0  0  0  0  0  0  0  0  0  0
    6.5870   -1.4030   26.6420 C   0  0  0  0  0  0  0  0  0  0  0  0
    7.8360   -0.5780   26.3930 C   0  0  0  0  0  0  0  0  0  0  0  0
    7.9340    0.5540   26.8280 O   0  0  0  0  0  0  0  0  0  0  0  0
    8.8960   -1.1880   25.7310 N   0  0  0  0  0  0  0  0  0  0  0  0
   10.2700   -0.7900   26.0390 C   0  0  0  0  0  0  0  0  0  0  0  0
   11.0780   -2.0550   26.3010 C   0  0  0  0  0  0  0  0  0  0  0  0
   11.1840   -2.7870   24.9710 C   0  0  0  0  0  0  0  0  0  0  0  0
    9.8690   -2.8020   24.2320 C   0  0  0  0  0  0  0  0  0  0  0  0
    9.7620   -3.5810   23.0880 C   0  0  0  0  0  0  0  0  0  0  0  0
    8.5650   -3.7830   22.4260 C   0  0  0  0  0  0  0  0  0  0  0  0
    7.4850   -3.0100   22.8180 C   0  0  0  0  0  0  0  0  0  0  0  0
    6.2530   -3.1950   22.1470 N   0  0  0  0  0  0  0  0  0  0  0  0
    5.5700   -2.1990   21.4710 C   0  0  0  0  0  0  0  0  0  0  0  0
    4.4110   -2.3800   21.1840 O   0  0  0  0  0  0  0  0  0  0  0  0
    6.3930   -0.9760   21.0500 C   0  0  0  0  0  0  0  0  0  0  0  0
    5.8010   -0.2480   19.8690 C   0  0  0  0  0  0  0  0  0  0  0  0
    6.2640   -0.4860   18.6020 C   0  0  0  0  0  0  0  0  0  0  0  0
    5.8080    0.1020   17.4630 N   0  0  0  0  0  0  0  0  0  0  0  0
    4.8290    0.9650   17.6000 C   0  0  0  0  0  0  0  0  0  0  0  0
    4.2460    1.3140   18.8480 C   0  0  0  0  0  0  0  0  0  0  0  0
    3.2080    2.2770   18.9410 C   0  0  0  0  0  0  0  0  0  0  0  0
    2.6740    2.6010   20.1590 C   0  0  0  0  0  0  0  0  0  0  0  0
    3.1550    1.9790   21.3330 C   0  0  0  0  0  0  0  0  0  0  0  0
    4.1560    1.0400   21.2680 C   0  0  0  0  0  0  0  0  0  0  0  0
    4.7340    0.6880   20.0190 C   0  0  0  0  0  0  0  0  0  0  0  0
    4.5090    0.5630   22.1780 H   0  0  0  0  0  0  0  0  0  0  0  0
    2.7330    2.2590   22.2950 H   0  0  0  0  0  0  0  0  0  0  0  0
    1.8810    3.3400   20.2300 H   0  0  0  0  0  0  0  0  0  0  0  0
    2.8560    2.7560   18.0300 H   0  0  0  0  0  0  0  0  0  0  0  0
    4.4490    1.4460   16.6950 H   0  0  0  0  0  0  0  0  0  0  0  0
    7.0790   -1.1920   18.4430 H   0  0  0  0  0  0  0  0  0  0  0  0
    6.5050   -0.3070   21.9140 H   0  0  0  0  0  0  0  0  0  0  0  0
    7.4030   -1.3300   20.8040 H   0  0  0  0  0  0  0  0  0  0  0  0
    5.8180   -4.4870   21.9620 N   0  0  0  0  0  0  0  0  0  0  0  0
    5.6500   -5.0210   20.6300 C   0  0  0  0  0  0  0  0  0  0  0  0
    5.4560   -4.2060   19.9290 H   0  0  0  0  0  0  0  0  0  0  0  0
    4.7670   -5.6580   20.6450 H   0  0  0  0  0  0  0  0  0  0  0  0
    6.5070   -5.6290   20.2930 H   0  0  0  0  0  0  0  0  0  0  0  0
    5.4500   -5.2150   23.0860 C   0  0  0  0  0  0  0  0  0  0  0  0
    5.4430   -6.6110   23.0430 C   0  0  0  0  0  0  0  0  0  0  0  0
    5.1550   -7.3320   24.1930 C   0  0  0  0  0  0  0  0  0  0  0  0
    4.8420   -6.6880   25.3840 C   0  0  0  0  0  0  0  0  0  0  0  0
    4.8040   -5.3000   25.3900 C   0  0  0  0  0  0  0  0  0  0  0  0
    4.4100   -4.4580   26.8690 Cl  0  0  0  0  0  0  0  0  0  0  0  0
    5.0910   -4.5500   24.2640 C   0  0  0  0  0  0  0  0  0  0  0  0
    5.0320   -3.4670   24.2660 H   0  0  0  0  0  0  0  0  0  0  0  0
    4.6330   -7.2460   26.2910 H   0  0  0  0  0  0  0  0  0  0  0  0
    5.1790   -8.4170   24.1550 H   0  0  0  0  0  0  0  0  0  0  0  0
    5.6750   -7.1280   22.1170 H   0  0  0  0  0  0  0  0  0  0  0  0
    7.5950   -2.0970   23.8580 C   0  0  0  0  0  0  0  0  0  0  0  0
    8.7610   -2.0500   24.6290 C   0  0  0  0  0  0  0  0  0  0  0  0
    6.7680   -1.4340   24.0890 H   0  0  0  0  0  0  0  0  0  0  0  0
    8.4470   -4.5180   21.6350 H   0  0  0  0  0  0  0  0  0  0  0  0
   10.6720   -4.0170   22.7230 H   0  0  0  0  0  0  0  0  0  0  0  0
   11.9190   -2.2860   24.3280 H   0  0  0  0  0  0  0  0  0  0  0  0
   11.5420   -3.8130   25.1050 H   0  0  0  0  0  0  0  0  0  0  0  0
   10.5450   -2.6760   27.0330 H   0  0  0  0  0  0  0  0  0  0  0  0
   12.0740   -1.8350   26.7040 H   0  0  0  0  0  0  0  0  0  0  0  0
   10.6860   -0.2460   25.1780 H   0  0  0  0  0  0  0  0  0  0  0  0
   10.2690   -0.1040   26.8750 H   0  0  0  0  0  0  0  0  0  0  0  0
    6.6240   -2.3600   26.1150 H   0  0  0  0  0  0  0  0  0  0  0  0
    5.7440   -0.8170   26.2600 H   0  0  0  0  0  0  0  0  0  0  0  0
    5.4010   -1.9060   28.3790 H   0  0  0  0  0  0  0  0  0  0  0  0
    6.6740   -0.7150   28.6770 H   0  0  0  0  0  0  0  0  0  0  0  0
    7.0960   -2.4340   28.4980 H   0  0  0  0  0  0  0  0  0  0  0  0
  1  2  1  0  0  0  0
  1 64  1  0  0  0  0
  1 65  1  0  0  0  0
  1 66  1  0  0  0  0
  2  3  1  0  0  0  0
  2 62  1  0  0  0  0
  2 63  1  0  0  0  0
  3  4  2  0  0  0  0
  3  5  1  0  0  0  0
  5  6  1  0  0  0  0
  5 52  1  0  0  0  0
  6  7  1  0  0  0  0
  6 60  1  0  0  0  0
  6 61  1  0  0  0  0
  7  8  1  0  0  0  0
  7 58  1  0  0  0  0
  7 59  1  0  0  0  0
  8  9  1  0  0  0  0
  8 56  1  0  0  0  0
  8 57  1  0  0  0  0
  9 10  2  0  0  0  0
  9 52  1  0  0  0  0
 10 11  1  0  0  0  0
 10 55  1  0  0  0  0
 11 12  2  0  0  0  0
 11 54  1  0  0  0  0
 12 13  1  0  0  0  0
 12 51  1  0  0  0  0
 13 14  1  0  0  0  0
 13 35  1  0  0  0  0
 14 15  2  0  0  0  0
 14 16  1  0  0  0  0
 16 17  1  0  0  0  0
 16 33  1  0  0  0  0
 16 34  1  0  0  0  0
 17 18  2  0  0  0  0
 17 26  1  0  0  0  0
 18 19  1  0  0  0  0
 18 32  1  0  0  0  0
 19 20  2  0  0  0  0
 20 21  1  0  0  0  0
 20 31  1  0  0  0  0
 21 22  2  0  0  0  0
 21 26  1  0  0  0  0
 22 23  1  0  0  0  0
 22 30  1  0  0  0  0
 23 24  2  0  0  0  0
 23 29  1  0  0  0  0
 24 25  1  0  0  0  0
 24 28  1  0  0  0  0
 25 26  2  0  0  0  0
 25 27  1  0  0  0  0
 35 36  1  0  0  0  0
 35 40  1  0  0  0  0
 36 37  1  0  0  0  0
 36 38  1  0  0  0  0
 36 39  1  0  0  0  0
 40 41  2  0  0  0  0
 40 46  1  0  0  0  0
 41 42  1  0  0  0  0
 41 50  1  0  0  0  0
 42 43  2  0  0  0  0
 42 49  1  0  0  0  0
 43 44  1  0  0  0  0
 43 48  1  0  0  0  0
 44 45  1  0  0  0  0
 44 46  2  0  0  0  0
 46 47  1  0  0  0  0
 51 52  2  0  0  0  0
 51 53  1  0  0  0  0
M  END
>  <MODEL>
       2

$$$$
best_conformers_20.pdb
 OpenBabel02042510453D

 66 70  0  0  0  0  0  0  0  0999 V2000
    4.3450    5.9220   20.9160 C   0  0  0  0  0  0  0  0  0  0  0  0
    5.2870    4.7380   21.1670 C   0  0  0  0  0  0  0  0  0  0  0  0
    6.6460    5.3940   21.3250 C   0  0  0  0  0  0  0  0  0  0  0  0
    7.0460    6.1700   20.4780 O   0  0  0  0  0  0  0  0  0  0  0  0
    7.3290    5.2940   22.5320 N   0  0  0  0  0  0  0  0  0  0  0  0
    7.9180    6.5630   22.9590 C   0  0  0  0  0  0  0  0  0  0  0  0
    7.6230    6.7850   24.4250 C   0  0  0  0  0  0  0  0  0  0  0  0
    8.2570    5.6370   25.1930 C   0  0  0  0  0  0  0  0  0  0  0  0
    7.8550    4.2830   24.6580 C   0  0  0  0  0  0  0  0  0  0  0  0
    7.8890    3.1490   25.4620 C   0  0  0  0  0  0  0  0  0  0  0  0
    7.7120    1.8780   24.9460 C   0  0  0  0  0  0  0  0  0  0  0  0
    7.3970    1.7280   23.5950 C   0  0  0  0  0  0  0  0  0  0  0  0
    7.1360    0.4240   23.0850 N   0  0  0  0  0  0  0  0  0  0  0  0
    7.3550    0.1600   21.7230 C   0  0  0  0  0  0  0  0  0  0  0  0
    8.2300    0.7340   21.1080 O   0  0  0  0  0  0  0  0  0  0  0  0
    6.4420   -0.8490   21.0340 C   0  0  0  0  0  0  0  0  0  0  0  0
    5.7960   -0.1900   19.8450 C   0  0  0  0  0  0  0  0  0  0  0  0
    6.2580   -0.4330   18.5820 C   0  0  0  0  0  0  0  0  0  0  0  0
    5.7970    0.1480   17.4450 N   0  0  0  0  0  0  0  0  0  0  0  0
    4.8170    1.0110   17.5870 C   0  0  0  0  0  0  0  0  0  0  0  0
    4.2440    1.3790   18.8370 C   0  0  0  0  0  0  0  0  0  0  0  0
    3.1840    2.3170   18.9420 C   0  0  0  0  0  0  0  0  0  0  0  0
    2.6530    2.6340   20.1620 C   0  0  0  0  0  0  0  0  0  0  0  0
    3.1630    2.0360   21.3360 C   0  0  0  0  0  0  0  0  0  0  0  0
    4.2010    1.1390   21.2660 C   0  0  0  0  0  0  0  0  0  0  0  0
    4.7570    0.7690   20.0100 C   0  0  0  0  0  0  0  0  0  0  0  0
    4.5940    0.7060   22.1840 H   0  0  0  0  0  0  0  0  0  0  0  0
    2.7400    2.3050   22.3020 H   0  0  0  0  0  0  0  0  0  0  0  0
    1.8400    3.3560   20.2370 H   0  0  0  0  0  0  0  0  0  0  0  0
    2.8090    2.7810   18.0340 H   0  0  0  0  0  0  0  0  0  0  0  0
    4.4280    1.4720   16.6770 H   0  0  0  0  0  0  0  0  0  0  0  0
    7.0630   -1.1550   18.4420 H   0  0  0  0  0  0  0  0  0  0  0  0
    5.7060   -1.2400   21.7380 H   0  0  0  0  0  0  0  0  0  0  0  0
    7.0760   -1.6840   20.7080 H   0  0  0  0  0  0  0  0  0  0  0  0
    6.6660   -0.5660   23.9420 N   0  0  0  0  0  0  0  0  0  0  0  0
    5.4160   -0.3550   24.6400 C   0  0  0  0  0  0  0  0  0  0  0  0
    4.5550   -0.8520   24.1670 H   0  0  0  0  0  0  0  0  0  0  0  0
    5.1960    0.7130   24.6980 H   0  0  0  0  0  0  0  0  0  0  0  0
    5.4920   -0.7330   25.6650 H   0  0  0  0  0  0  0  0  0  0  0  0
    7.3650   -1.7690   24.0960 C   0  0  0  0  0  0  0  0  0  0  0  0
    8.7570   -1.8310   23.9440 C   0  0  0  0  0  0  0  0  0  0  0  0
    9.4140   -3.0450   24.0880 C   0  0  0  0  0  0  0  0  0  0  0  0
    8.7220   -4.2190   24.3780 C   0  0  0  0  0  0  0  0  0  0  0  0
    7.3480   -4.1400   24.5390 C   0  0  0  0  0  0  0  0  0  0  0  0
    6.4530   -5.5950   24.8940 Cl  0  0  0  0  0  0  0  0  0  0  0  0
    6.6610   -2.9380   24.4260 C   0  0  0  0  0  0  0  0  0  0  0  0
    5.5850   -2.9280   24.5760 H   0  0  0  0  0  0  0  0  0  0  0  0
    9.2380   -5.1700   24.4840 H   0  0  0  0  0  0  0  0  0  0  0  0
   10.4920   -3.0790   23.9670 H   0  0  0  0  0  0  0  0  0  0  0  0
    9.3130   -0.9260   23.7180 H   0  0  0  0  0  0  0  0  0  0  0  0
    7.2730    2.8530   22.7860 C   0  0  0  0  0  0  0  0  0  0  0  0
    7.4790    4.1340   23.3150 C   0  0  0  0  0  0  0  0  0  0  0  0
    6.9790    2.7360   21.7510 H   0  0  0  0  0  0  0  0  0  0  0  0
    7.8460    0.9870   25.5470 H   0  0  0  0  0  0  0  0  0  0  0  0
    8.0270    3.2780   26.5280 H   0  0  0  0  0  0  0  0  0  0  0  0
    8.0490    5.6840   26.2670 H   0  0  0  0  0  0  0  0  0  0  0  0
    9.3400    5.7610   25.0680 H   0  0  0  0  0  0  0  0  0  0  0  0
    8.0360    7.7490   24.7440 H   0  0  0  0  0  0  0  0  0  0  0  0
    6.5400    6.8120   24.5840 H   0  0  0  0  0  0  0  0  0  0  0  0
    8.9920    6.5680   22.7480 H   0  0  0  0  0  0  0  0  0  0  0  0
    7.4730    7.3370   22.3360 H   0  0  0  0  0  0  0  0  0  0  0  0
    5.2820    4.0360   20.3230 H   0  0  0  0  0  0  0  0  0  0  0  0
    5.0190    4.1910   22.0730 H   0  0  0  0  0  0  0  0  0  0  0  0
    4.2840    6.5450   21.8120 H   0  0  0  0  0  0  0  0  0  0  0  0
    4.8010    6.5360   20.1420 H   0  0  0  0  0  0  0  0  0  0  0  0
    3.3290    5.6640   20.6100 H   0  0  0  0  0  0  0  0  0  0  0  0
  1  2  1  0  0  0  0
  1 64  1  0  0  0  0
  1 65  1  0  0  0  0
  1 66  1  0  0  0  0
  2  3  1  0  0  0  0
  2 62  1  0  0  0  0
  2 63  1  0  0  0  0
  3  4  2  0  0  0  0
  3  5  1  0  0  0  0
  5  6  1  0  0  0  0
  5 52  1  0  0  0  0
  6  7  1  0  0  0  0
  6 60  1  0  0  0  0
  6 61  1  0  0  0  0
  7  8  1  0  0  0  0
  7 58  1  0  0  0  0
  7 59  1  0  0  0  0
  8  9  1  0  0  0  0
  8 56  1  0  0  0  0
  8 57  1  0  0  0  0
  9 10  2  0  0  0  0
  9 52  1  0  0  0  0
 10 11  1  0  0  0  0
 10 55  1  0  0  0  0
 11 12  2  0  0  0  0
 11 54  1  0  0  0  0
 12 13  1  0  0  0  0
 12 51  1  0  0  0  0
 13 14  1  0  0  0  0
 13 35  1  0  0  0  0
 14 15  2  0  0  0  0
 14 16  1  0  0  0  0
 16 17  1  0  0  0  0
 16 33  1  0  0  0  0
 16 34  1  0  0  0  0
 17 18  2  0  0  0  0
 17 26  1  0  0  0  0
 18 19  1  0  0  0  0
 18 32  1  0  0  0  0
 19 20  2  0  0  0  0
 20 21  1  0  0  0  0
 20 31  1  0  0  0  0
 21 22  2  0  0  0  0
 21 26  1  0  0  0  0
 22 23  1  0  0  0  0
 22 30  1  0  0  0  0
 23 24  2  0  0  0  0
 23 29  1  0  0  0  0
 24 25  1  0  0  0  0
 24 28  1  0  0  0  0
 25 26  2  0  0  0  0
 25 27  1  0  0  0  0
 35 36  1  0  0  0  0
 35 40  1  0  0  0  0
 36 37  1  0  0  0  0
 36 38  1  0  0  0  0
 36 39  1  0  0  0  0
 40 41  2  0  0  0  0
 40 46  1  0  0  0  0
 41 42  1  0  0  0  0
 41 50  1  0  0  0  0
 42 43  2  0  0  0  0
 42 49  1  0  0  0  0
 43 44  1  0  0  0  0
 43 48  1  0  0  0  0
 44 45  1  0  0  0  0
 44 46  2  0  0  0  0
 46 47  1  0  0  0  0
 51 52  2  0  0  0  0
 51 53  1  0  0  0  0
M  END
>  <MODEL>
       3

$$$$
