best_conformers_96.pdb
 OpenBabel02042510453D

 37 39  0  0  0  0  0  0  0  0999 V2000
    8.3750    0.6410   21.1210 O   0  0  0  0  0  0  0  0  0  0  0  0
    7.4490    0.1480   21.7400 C   0  0  0  0  0  0  0  0  0  0  0  0
    6.4670   -0.8150   21.0470 C   0  0  0  0  0  0  0  0  0  0  0  0
    5.8030   -0.1720   19.8480 C   0  0  0  0  0  0  0  0  0  0  0  0
    6.2350   -0.4380   18.5740 C   0  0  0  0  0  0  0  0  0  0  0  0
    5.7560    0.1390   17.4360 N   0  0  0  0  0  0  0  0  0  0  0  0
    4.7860    1.0110   17.5820 C   0  0  0  0  0  0  0  0  0  0  0  0
    4.2260    1.3790   18.8340 C   0  0  0  0  0  0  0  0  0  0  0  0
    3.1780    2.3300   18.9390 C   0  0  0  0  0  0  0  0  0  0  0  0
    2.6580    2.6600   20.1610 C   0  0  0  0  0  0  0  0  0  0  0  0
    3.1670    2.0540   21.3320 C   0  0  0  0  0  0  0  0  0  0  0  0
    4.1840    1.1340   21.2590 C   0  0  0  0  0  0  0  0  0  0  0  0
    4.7440    0.7730   20.0050 C   0  0  0  0  0  0  0  0  0  0  0  0
    4.5680    0.6840   22.1710 H   0  0  0  0  0  0  0  0  0  0  0  0
    2.7480    2.3240   22.2970 H   0  0  0  0  0  0  0  0  0  0  0  0
    1.8560    3.3910   20.2410 H   0  0  0  0  0  0  0  0  0  0  0  0
    2.8010    2.7930   18.0300 H   0  0  0  0  0  0  0  0  0  0  0  0
    4.3980    1.4860   16.6780 H   0  0  0  0  0  0  0  0  0  0  0  0
    7.0260   -1.1700   18.4040 H   0  0  0  0  0  0  0  0  0  0  0  0
    7.0670   -1.6610   20.6890 H   0  0  0  0  0  0  0  0  0  0  0  0
    5.7340   -1.2320   21.7510 H   0  0  0  0  0  0  0  0  0  0  0  0
    7.2320    0.4410   23.0580 N   0  0  0  0  0  0  0  0  0  0  0  0
    8.1360    1.3250   23.7860 C   0  0  0  0  0  0  0  0  0  0  0  0
    9.4880    0.7100   24.0750 C   0  0  0  0  0  0  0  0  0  0  0  0
    9.5970   -0.3180   25.0080 C   0  0  0  0  0  0  0  0  0  0  0  0
   10.8220   -0.9290   25.2370 C   0  0  0  0  0  0  0  0  0  0  0  0
   11.9550   -0.5280   24.5400 C   0  0  0  0  0  0  0  0  0  0  0  0
   11.8370    0.4980   23.6120 C   0  0  0  0  0  0  0  0  0  0  0  0
   13.2420    1.0050   22.7210 Cl  0  0  0  0  0  0  0  0  0  0  0  0
   10.6200    1.1240   23.3770 C   0  0  0  0  0  0  0  0  0  0  0  0
   10.5450    1.9040   22.6230 H   0  0  0  0  0  0  0  0  0  0  0  0
   12.9160   -1.0060   24.7090 H   0  0  0  0  0  0  0  0  0  0  0  0
   10.8980   -1.7320   25.9620 H   0  0  0  0  0  0  0  0  0  0  0  0
    8.7160   -0.6490   25.5530 H   0  0  0  0  0  0  0  0  0  0  0  0
    8.2570    2.2510   23.2210 H   0  0  0  0  0  0  0  0  0  0  0  0
    7.6430    1.5910   24.7240 H   0  0  0  0  0  0  0  0  0  0  0  0
    6.4950   -0.0160   23.5650 H   0  0  0  0  0  0  0  0  0  0  0  0
  1  2  2  0  0  0  0
  2  3  1  0  0  0  0
  2 22  1  0  0  0  0
  3  4  1  0  0  0  0
  3 20  1  0  0  0  0
  3 21  1  0  0  0  0
  4  5  2  0  0  0  0
  4 13  1  0  0  0  0
  5  6  1  0  0  0  0
  5 19  1  0  0  0  0
  6  7  2  0  0  0  0
  7  8  1  0  0  0  0
  7 18  1  0  0  0  0
  8  9  2  0  0  0  0
  8 13  1  0  0  0  0
  9 10  1  0  0  0  0
  9 17  1  0  0  0  0
 10 11  2  0  0  0  0
 10 16  1  0  0  0  0
 11 12  1  0  0  0  0
 11 15  1  0  0  0  0
 12 13  2  0  0  0  0
 12 14  1  0  0  0  0
 22 23  1  0  0  0  0
 22 37  1  0  0  0  0
 23 24  1  0  0  0  0
 23 35  1  0  0  0  0
 23 36  1  0  0  0  0
 24 25  2  0  0  0  0
 24 30  1  0  0  0  0
 25 26  1  0  0  0  0
 25 34  1  0  0  0  0
 26 27  2  0  0  0  0
 26 33  1  0  0  0  0
 27 28  1  0  0  0  0
 27 32  1  0  0  0  0
 28 29  1  0  0  0  0
 28 30  2  0  0  0  0
 30 31  1  0  0  0  0
M  END
>  <MODEL>
       1

$$$$
best_conformers_96.pdb
 OpenBabel02042510453D

 37 39  0  0  0  0  0  0  0  0999 V2000
    8.3770    0.6400   21.1220 O   0  0  0  0  0  0  0  0  0  0  0  0
    7.4500    0.1470   21.7400 C   0  0  0  0  0  0  0  0  0  0  0  0
    6.4680   -0.8150   21.0470 C   0  0  0  0  0  0  0  0  0  0  0  0
    5.8030   -0.1720   19.8480 C   0  0  0  0  0  0  0  0  0  0  0  0
    6.2350   -0.4380   18.5740 C   0  0  0  0  0  0  0  0  0  0  0  0
    5.7560    0.1390   17.4370 N   0  0  0  0  0  0  0  0  0  0  0  0
    4.7860    1.0110   17.5820 C   0  0  0  0  0  0  0  0  0  0  0  0
    4.2260    1.3790   18.8340 C   0  0  0  0  0  0  0  0  0  0  0  0
    3.1780    2.3300   18.9390 C   0  0  0  0  0  0  0  0  0  0  0  0
    2.6580    2.6600   20.1610 C   0  0  0  0  0  0  0  0  0  0  0  0
    3.1670    2.0540   21.3320 C   0  0  0  0  0  0  0  0  0  0  0  0
    4.1840    1.1340   21.2590 C   0  0  0  0  0  0  0  0  0  0  0  0
    4.7440    0.7730   20.0050 C   0  0  0  0  0  0  0  0  0  0  0  0
    4.5680    0.6840   22.1710 H   0  0  0  0  0  0  0  0  0  0  0  0
    2.7480    2.3240   22.2970 H   0  0  0  0  0  0  0  0  0  0  0  0
    1.8560    3.3910   20.2410 H   0  0  0  0  0  0  0  0  0  0  0  0
    2.8010    2.7930   18.0300 H   0  0  0  0  0  0  0  0  0  0  0  0
    4.3980    1.4860   16.6780 H   0  0  0  0  0  0  0  0  0  0  0  0
    7.0260   -1.1700   18.4040 H   0  0  0  0  0  0  0  0  0  0  0  0
    5.7350   -1.2310   21.7510 H   0  0  0  0  0  0  0  0  0  0  0  0
    7.0670   -1.6610   20.6890 H   0  0  0  0  0  0  0  0  0  0  0  0
    7.2340    0.4400   23.0590 N   0  0  0  0  0  0  0  0  0  0  0  0
    8.1360    1.3250   23.7870 C   0  0  0  0  0  0  0  0  0  0  0  0
    9.4890    0.7110   24.0710 C   0  0  0  0  0  0  0  0  0  0  0  0
   10.6260    1.1330   23.3860 C   0  0  0  0  0  0  0  0  0  0  0  0
   11.8510    0.5160   23.6110 C   0  0  0  0  0  0  0  0  0  0  0  0
   11.9610   -0.5210   24.5290 C   0  0  0  0  0  0  0  0  0  0  0  0
   10.8220   -0.9290   25.2110 C   0  0  0  0  0  0  0  0  0  0  0  0
   10.9420   -2.2260   26.3620 Cl  0  0  0  0  0  0  0  0  0  0  0  0
    9.5900   -0.3280   24.9930 C   0  0  0  0  0  0  0  0  0  0  0  0
    8.7160   -0.6790   25.5360 H   0  0  0  0  0  0  0  0  0  0  0  0
   12.9120   -1.0110   24.7130 H   0  0  0  0  0  0  0  0  0  0  0  0
   12.7300    0.8430   23.0650 H   0  0  0  0  0  0  0  0  0  0  0  0
   10.5380    1.9250   22.6470 H   0  0  0  0  0  0  0  0  0  0  0  0
    8.2540    2.2520   23.2220 H   0  0  0  0  0  0  0  0  0  0  0  0
    7.6440    1.5880   24.7260 H   0  0  0  0  0  0  0  0  0  0  0  0
    6.4940   -0.0150   23.5650 H   0  0  0  0  0  0  0  0  0  0  0  0
  1  2  2  0  0  0  0
  2  3  1  0  0  0  0
  2 22  1  0  0  0  0
  3  4  1  0  0  0  0
  3 20  1  0  0  0  0
  3 21  1  0  0  0  0
  4  5  2  0  0  0  0
  4 13  1  0  0  0  0
  5  6  1  0  0  0  0
  5 19  1  0  0  0  0
  6  7  2  0  0  0  0
  7  8  1  0  0  0  0
  7 18  1  0  0  0  0
  8  9  2  0  0  0  0
  8 13  1  0  0  0  0
  9 10  1  0  0  0  0
  9 17  1  0  0  0  0
 10 11  2  0  0  0  0
 10 16  1  0  0  0  0
 11 12  1  0  0  0  0
 11 15  1  0  0  0  0
 12 13  2  0  0  0  0
 12 14  1  0  0  0  0
 22 23  1  0  0  0  0
 22 37  1  0  0  0  0
 23 24  1  0  0  0  0
 23 35  1  0  0  0  0
 23 36  1  0  0  0  0
 24 25  2  0  0  0  0
 24 30  1  0  0  0  0
 25 26  1  0  0  0  0
 25 34  1  0  0  0  0
 26 27  2  0  0  0  0
 26 33  1  0  0  0  0
 27 28  1  0  0  0  0
 27 32  1  0  0  0  0
 28 29  1  0  0  0  0
 28 30  2  0  0  0  0
 30 31  1  0  0  0  0
M  END
>  <MODEL>
       2

$$$$
best_conformers_96.pdb
 OpenBabel02042510453D

 37 39  0  0  0  0  0  0  0  0999 V2000
    5.3230   -2.8010   20.4380 O   0  0  0  0  0  0  0  0  0  0  0  0
    5.7810   -2.0180   21.2520 C   0  0  0  0  0  0  0  0  0  0  0  0
    6.5870   -0.7790   20.8600 C   0  0  0  0  0  0  0  0  0  0  0  0
    5.9300   -0.0700   19.7150 C   0  0  0  0  0  0  0  0  0  0  0  0
    6.3370   -0.3300   18.4330 C   0  0  0  0  0  0  0  0  0  0  0  0
    5.7990    0.2060   17.3090 N   0  0  0  0  0  0  0  0  0  0  0  0
    4.8010    1.0400   17.4830 C   0  0  0  0  0  0  0  0  0  0  0  0
    4.2580    1.3890   18.7480 C   0  0  0  0  0  0  0  0  0  0  0  0
    3.1900    2.3120   18.8620 C   0  0  0  0  0  0  0  0  0  0  0  0
    2.6660    2.6170   20.0880 C   0  0  0  0  0  0  0  0  0  0  0  0
    3.1770    1.9920   21.2470 C   0  0  0  0  0  0  0  0  0  0  0  0
    4.2140    1.0960   21.1630 C   0  0  0  0  0  0  0  0  0  0  0  0
    4.8100    0.7950   19.9060 C   0  0  0  0  0  0  0  0  0  0  0  0
    4.5820    0.6230   22.0690 H   0  0  0  0  0  0  0  0  0  0  0  0
    2.7460    2.2360   22.2170 H   0  0  0  0  0  0  0  0  0  0  0  0
    1.8620    3.3430   20.1780 H   0  0  0  0  0  0  0  0  0  0  0  0
    2.8120    2.7800   17.9550 H   0  0  0  0  0  0  0  0  0  0  0  0
    4.3630    1.4810   16.5890 H   0  0  0  0  0  0  0  0  0  0  0  0
    7.1550   -1.0280   18.2530 H   0  0  0  0  0  0  0  0  0  0  0  0
    6.7350   -0.1310   21.7310 H   0  0  0  0  0  0  0  0  0  0  0  0
    7.5890   -1.1090   20.5560 H   0  0  0  0  0  0  0  0  0  0  0  0
    5.5910   -2.1670   22.5950 N   0  0  0  0  0  0  0  0  0  0  0  0
    4.8320   -3.2780   23.1250 C   0  0  0  0  0  0  0  0  0  0  0  0
    5.6210   -4.5540   23.3620 C   0  0  0  0  0  0  0  0  0  0  0  0
    5.2390   -5.7350   22.7150 C   0  0  0  0  0  0  0  0  0  0  0  0
    5.9440   -6.9140   22.9240 C   0  0  0  0  0  0  0  0  0  0  0  0
    7.0720   -6.9150   23.7460 C   0  0  0  0  0  0  0  0  0  0  0  0
    7.4220   -5.7490   24.4220 C   0  0  0  0  0  0  0  0  0  0  0  0
    8.8430   -5.7280   25.4420 Cl  0  0  0  0  0  0  0  0  0  0  0  0
    6.7030   -4.5740   24.2460 C   0  0  0  0  0  0  0  0  0  0  0  0
    7.0070   -3.6820   24.7920 H   0  0  0  0  0  0  0  0  0  0  0  0
    7.7030   -7.7900   23.8470 H   0  0  0  0  0  0  0  0  0  0  0  0
    5.6280   -7.8230   22.4170 H   0  0  0  0  0  0  0  0  0  0  0  0
    4.3950   -5.7190   22.0220 H   0  0  0  0  0  0  0  0  0  0  0  0
    4.0480   -3.5100   22.4090 H   0  0  0  0  0  0  0  0  0  0  0  0
    4.3480   -2.9340   24.0470 H   0  0  0  0  0  0  0  0  0  0  0  0
    5.9240   -1.4620   23.2300 H   0  0  0  0  0  0  0  0  0  0  0  0
  1  2  2  0  0  0  0
  2  3  1  0  0  0  0
  2 22  1  0  0  0  0
  3  4  1  0  0  0  0
  3 20  1  0  0  0  0
  3 21  1  0  0  0  0
  4  5  2  0  0  0  0
  4 13  1  0  0  0  0
  5  6  1  0  0  0  0
  5 19  1  0  0  0  0
  6  7  2  0  0  0  0
  7  8  1  0  0  0  0
  7 18  1  0  0  0  0
  8  9  2  0  0  0  0
  8 13  1  0  0  0  0
  9 10  1  0  0  0  0
  9 17  1  0  0  0  0
 10 11  2  0  0  0  0
 10 16  1  0  0  0  0
 11 12  1  0  0  0  0
 11 15  1  0  0  0  0
 12 13  2  0  0  0  0
 12 14  1  0  0  0  0
 22 23  1  0  0  0  0
 22 37  1  0  0  0  0
 23 24  1  0  0  0  0
 23 35  1  0  0  0  0
 23 36  1  0  0  0  0
 24 25  2  0  0  0  0
 24 30  1  0  0  0  0
 25 26  1  0  0  0  0
 25 34  1  0  0  0  0
 26 27  2  0  0  0  0
 26 33  1  0  0  0  0
 27 28  1  0  0  0  0
 27 32  1  0  0  0  0
 28 29  1  0  0  0  0
 28 30  2  0  0  0  0
 30 31  1  0  0  0  0
M  END
>  <MODEL>
       3

$$$$
best_conformers_96.pdb
 OpenBabel02042510453D

 37 39  0  0  0  0  0  0  0  0999 V2000
    4.8460   -1.9620   22.4820 O   0  0  0  0  0  0  0  0  0  0  0  0
    5.5600   -2.0300   21.4920 C   0  0  0  0  0  0  0  0  0  0  0  0
    6.4230   -0.8890   20.9790 C   0  0  0  0  0  0  0  0  0  0  0  0
    5.8060   -0.1890   19.7990 C   0  0  0  0  0  0  0  0  0  0  0  0
    6.2520   -0.4380   18.5270 C   0  0  0  0  0  0  0  0  0  0  0  0
    5.7770    0.1440   17.3960 N   0  0  0  0  0  0  0  0  0  0  0  0
    4.7970    1.0040   17.5490 C   0  0  0  0  0  0  0  0  0  0  0  0
    4.2330    1.3570   18.8060 C   0  0  0  0  0  0  0  0  0  0  0  0
    3.1910    2.3090   18.9230 C   0  0  0  0  0  0  0  0  0  0  0  0
    2.6730    2.6260   20.1490 C   0  0  0  0  0  0  0  0  0  0  0  0
    3.1710    2.0050   21.3170 C   0  0  0  0  0  0  0  0  0  0  0  0
    4.1770    1.0750   21.2340 C   0  0  0  0  0  0  0  0  0  0  0  0
    4.7390    0.7380   19.9710 C   0  0  0  0  0  0  0  0  0  0  0  0
    4.5400    0.5850   22.1350 H   0  0  0  0  0  0  0  0  0  0  0  0
    2.7570    2.2740   22.2850 H   0  0  0  0  0  0  0  0  0  0  0  0
    1.8720    3.3550   20.2340 H   0  0  0  0  0  0  0  0  0  0  0  0
    2.8210    2.7830   18.0170 H   0  0  0  0  0  0  0  0  0  0  0  0
    4.4010    1.4760   16.6500 H   0  0  0  0  0  0  0  0  0  0  0  0
    7.0680   -1.1420   18.3590 H   0  0  0  0  0  0  0  0  0  0  0  0
    7.3880   -1.3090   20.6750 H   0  0  0  0  0  0  0  0  0  0  0  0
    6.5990   -0.2200   21.8250 H   0  0  0  0  0  0  0  0  0  0  0  0
    5.6350   -3.1520   20.7290 N   0  0  0  0  0  0  0  0  0  0  0  0
    4.8870   -4.3230   21.1210 C   0  0  0  0  0  0  0  0  0  0  0  0
    5.4950   -5.1360   22.2470 C   0  0  0  0  0  0  0  0  0  0  0  0
    4.8300   -5.0940   23.4690 C   0  0  0  0  0  0  0  0  0  0  0  0
    5.3010   -5.7680   24.5830 C   0  0  0  0  0  0  0  0  0  0  0  0
    6.4690   -6.5090   24.5000 C   0  0  0  0  0  0  0  0  0  0  0  0
    7.1340   -6.5550   23.2830 C   0  0  0  0  0  0  0  0  0  0  0  0
    8.6100   -7.4730   23.2380 Cl  0  0  0  0  0  0  0  0  0  0  0  0
    6.6580   -5.9030   22.1450 C   0  0  0  0  0  0  0  0  0  0  0  0
    7.1690   -6.0040   21.1930 H   0  0  0  0  0  0  0  0  0  0  0  0
    6.8820   -7.0380   25.3560 H   0  0  0  0  0  0  0  0  0  0  0  0
    4.7600   -5.7330   25.5240 H   0  0  0  0  0  0  0  0  0  0  0  0
    3.9210   -4.5050   23.5390 H   0  0  0  0  0  0  0  0  0  0  0  0
    4.6920   -4.9500   20.2470 H   0  0  0  0  0  0  0  0  0  0  0  0
    3.9420   -3.9330   21.5040 H   0  0  0  0  0  0  0  0  0  0  0  0
    6.1560   -3.1310   19.8690 H   0  0  0  0  0  0  0  0  0  0  0  0
  1  2  2  0  0  0  0
  2  3  1  0  0  0  0
  2 22  1  0  0  0  0
  3  4  1  0  0  0  0
  3 20  1  0  0  0  0
  3 21  1  0  0  0  0
  4  5  2  0  0  0  0
  4 13  1  0  0  0  0
  5  6  1  0  0  0  0
  5 19  1  0  0  0  0
  6  7  2  0  0  0  0
  7  8  1  0  0  0  0
  7 18  1  0  0  0  0
  8  9  2  0  0  0  0
  8 13  1  0  0  0  0
  9 10  1  0  0  0  0
  9 17  1  0  0  0  0
 10 11  2  0  0  0  0
 10 16  1  0  0  0  0
 11 12  1  0  0  0  0
 11 15  1  0  0  0  0
 12 13  2  0  0  0  0
 12 14  1  0  0  0  0
 22 23  1  0  0  0  0
 22 37  1  0  0  0  0
 23 24  1  0  0  0  0
 23 35  1  0  0  0  0
 23 36  1  0  0  0  0
 24 25  2  0  0  0  0
 24 30  1  0  0  0  0
 25 26  1  0  0  0  0
 25 34  1  0  0  0  0
 26 27  2  0  0  0  0
 26 33  1  0  0  0  0
 27 28  1  0  0  0  0
 27 32  1  0  0  0  0
 28 29  1  0  0  0  0
 28 30  2  0  0  0  0
 30 31  1  0  0  0  0
M  END
>  <MODEL>
       4

$$$$
best_conformers_96.pdb
 OpenBabel02042510453D

 37 39  0  0  0  0  0  0  0  0999 V2000
    8.4350    0.6180   21.1090 O   0  0  0  0  0  0  0  0  0  0  0  0
    7.4630    0.1860   21.7070 C   0  0  0  0  0  0  0  0  0  0  0  0
    6.4840   -0.7900   21.0450 C   0  0  0  0  0  0  0  0  0  0  0  0
    5.8030   -0.1670   19.8510 C   0  0  0  0  0  0  0  0  0  0  0  0
    6.2430   -0.4370   18.5800 C   0  0  0  0  0  0  0  0  0  0  0  0
    5.7680    0.1360   17.4430 N   0  0  0  0  0  0  0  0  0  0  0  0
    4.7970    1.0070   17.5840 C   0  0  0  0  0  0  0  0  0  0  0  0
    4.2260    1.3730   18.8350 C   0  0  0  0  0  0  0  0  0  0  0  0
    3.1820    2.3290   18.9380 C   0  0  0  0  0  0  0  0  0  0  0  0
    2.6630    2.6620   20.1610 C   0  0  0  0  0  0  0  0  0  0  0  0
    3.1660    2.0580   21.3340 C   0  0  0  0  0  0  0  0  0  0  0  0
    4.1800    1.1340   21.2590 C   0  0  0  0  0  0  0  0  0  0  0  0
    4.7400    0.7700   20.0050 C   0  0  0  0  0  0  0  0  0  0  0  0
    4.5620    0.6830   22.1670 H   0  0  0  0  0  0  0  0  0  0  0  0
    2.7460    2.3280   22.3000 H   0  0  0  0  0  0  0  0  0  0  0  0
    1.8650    3.3960   20.2360 H   0  0  0  0  0  0  0  0  0  0  0  0
    2.8140    2.7920   18.0260 H   0  0  0  0  0  0  0  0  0  0  0  0
    4.4070    1.4700   16.6760 H   0  0  0  0  0  0  0  0  0  0  0  0
    7.0370   -1.1660   18.4160 H   0  0  0  0  0  0  0  0  0  0  0  0
    5.7620   -1.1940   21.7660 H   0  0  0  0  0  0  0  0  0  0  0  0
    7.0830   -1.6350   20.6920 H   0  0  0  0  0  0  0  0  0  0  0  0
    7.1730    0.5630   22.9860 N   0  0  0  0  0  0  0  0  0  0  0  0
    7.9540    1.6170   23.6250 C   0  0  0  0  0  0  0  0  0  0  0  0
    7.3400    2.0130   24.9620 C   0  0  0  0  0  0  0  0  0  0  0  0
    6.2450    2.8860   24.9880 C   0  0  0  0  0  0  0  0  0  0  0  0
    5.6530    3.2420   26.1990 C   0  0  0  0  0  0  0  0  0  0  0  0
    6.1750    2.7500   27.3880 C   0  0  0  0  0  0  0  0  0  0  0  0
    7.2980    1.9400   27.3710 C   0  0  0  0  0  0  0  0  0  0  0  0
    8.0100    1.6190   28.9330 Cl  0  0  0  0  0  0  0  0  0  0  0  0
    7.8540    1.5140   26.1650 C   0  0  0  0  0  0  0  0  0  0  0  0
    8.6880    0.8180   26.1410 H   0  0  0  0  0  0  0  0  0  0  0  0
    5.7510    2.9920   28.3540 H   0  0  0  0  0  0  0  0  0  0  0  0
    4.8070    3.9280   26.2220 H   0  0  0  0  0  0  0  0  0  0  0  0
    5.8690    3.2980   24.0480 H   0  0  0  0  0  0  0  0  0  0  0  0
    8.9960    1.2860   23.7370 H   0  0  0  0  0  0  0  0  0  0  0  0
    7.9820    2.4700   22.9280 H   0  0  0  0  0  0  0  0  0  0  0  0
    6.4490    0.1010   23.5140 H   0  0  0  0  0  0  0  0  0  0  0  0
  1  2  2  0  0  0  0
  2  3  1  0  0  0  0
  2 22  1  0  0  0  0
  3  4  1  0  0  0  0
  3 20  1  0  0  0  0
  3 21  1  0  0  0  0
  4  5  2  0  0  0  0
  4 13  1  0  0  0  0
  5  6  1  0  0  0  0
  5 19  1  0  0  0  0
  6  7  2  0  0  0  0
  7  8  1  0  0  0  0
  7 18  1  0  0  0  0
  8  9  2  0  0  0  0
  8 13  1  0  0  0  0
  9 10  1  0  0  0  0
  9 17  1  0  0  0  0
 10 11  2  0  0  0  0
 10 16  1  0  0  0  0
 11 12  1  0  0  0  0
 11 15  1  0  0  0  0
 12 13  2  0  0  0  0
 12 14  1  0  0  0  0
 22 23  1  0  0  0  0
 22 37  1  0  0  0  0
 23 24  1  0  0  0  0
 23 35  1  0  0  0  0
 23 36  1  0  0  0  0
 24 25  2  0  0  0  0
 24 30  1  0  0  0  0
 25 26  1  0  0  0  0
 25 34  1  0  0  0  0
 26 27  2  0  0  0  0
 26 33  1  0  0  0  0
 27 28  1  0  0  0  0
 27 32  1  0  0  0  0
 28 29  1  0  0  0  0
 28 30  2  0  0  0  0
 30 31  1  0  0  0  0
M  END
>  <MODEL>
       5

$$$$
best_conformers_96.pdb
 OpenBabel02042510453D

 37 39  0  0  0  0  0  0  0  0999 V2000
    4.9140   -2.0290   22.4830 O   0  0  0  0  0  0  0  0  0  0  0  0
    5.5690   -2.0730   21.4560 C   0  0  0  0  0  0  0  0  0  0  0  0
    6.4410   -0.9050   20.9860 C   0  0  0  0  0  0  0  0  0  0  0  0
    5.8130   -0.1680   19.8290 C   0  0  0  0  0  0  0  0  0  0  0  0
    6.2290   -0.4410   18.5550 C   0  0  0  0  0  0  0  0  0  0  0  0
    5.7480    0.1370   17.4230 N   0  0  0  0  0  0  0  0  0  0  0  0
    4.7850    1.0140   17.5780 C   0  0  0  0  0  0  0  0  0  0  0  0
    4.2280    1.3800   18.8340 C   0  0  0  0  0  0  0  0  0  0  0  0
    3.1730    2.3260   18.9380 C   0  0  0  0  0  0  0  0  0  0  0  0
    2.6450    2.6450   20.1590 C   0  0  0  0  0  0  0  0  0  0  0  0
    3.1520    2.0330   21.3280 C   0  0  0  0  0  0  0  0  0  0  0  0
    4.1760    1.1180   21.2570 C   0  0  0  0  0  0  0  0  0  0  0  0
    4.7490    0.7720   20.0020 C   0  0  0  0  0  0  0  0  0  0  0  0
    4.5480    0.6480   22.1650 H   0  0  0  0  0  0  0  0  0  0  0  0
    2.7260    2.2980   22.2920 H   0  0  0  0  0  0  0  0  0  0  0  0
    1.8390    3.3710   20.2380 H   0  0  0  0  0  0  0  0  0  0  0  0
    2.7960    2.7910   18.0290 H   0  0  0  0  0  0  0  0  0  0  0  0
    4.3960    1.4900   16.6770 H   0  0  0  0  0  0  0  0  0  0  0  0
    7.0200   -1.1760   18.3960 H   0  0  0  0  0  0  0  0  0  0  0  0
    7.4410   -1.2670   20.7030 H   0  0  0  0  0  0  0  0  0  0  0  0
    6.5960   -0.2510   21.8470 H   0  0  0  0  0  0  0  0  0  0  0  0
    5.5090   -3.1580   20.6340 N   0  0  0  0  0  0  0  0  0  0  0  0
    4.7720   -4.3370   21.0450 C   0  0  0  0  0  0  0  0  0  0  0  0
    5.3760   -5.1450   22.1490 C   0  0  0  0  0  0  0  0  0  0  0  0
    6.5190   -5.8840   21.9070 C   0  0  0  0  0  0  0  0  0  0  0  0
    7.1180   -6.5660   22.9510 C   0  0  0  0  0  0  0  0  0  0  0  0
    6.5770   -6.5230   24.2290 C   0  0  0  0  0  0  0  0  0  0  0  0
    5.4180   -5.7890   24.4490 C   0  0  0  0  0  0  0  0  0  0  0  0
    4.7380   -5.7200   26.0450 Cl  0  0  0  0  0  0  0  0  0  0  0  0
    4.7990   -5.1070   23.4170 C   0  0  0  0  0  0  0  0  0  0  0  0
    3.9050   -4.5120   23.6070 H   0  0  0  0  0  0  0  0  0  0  0  0
    7.0500   -7.0530   25.0470 H   0  0  0  0  0  0  0  0  0  0  0  0
    8.0180   -7.1330   22.7660 H   0  0  0  0  0  0  0  0  0  0  0  0
    6.9380   -5.9040   20.9040 H   0  0  0  0  0  0  0  0  0  0  0  0
    3.8220   -4.0050   21.4560 H   0  0  0  0  0  0  0  0  0  0  0  0
    4.6390   -4.9650   20.1590 H   0  0  0  0  0  0  0  0  0  0  0  0
    6.0510   -3.1940   19.7880 H   0  0  0  0  0  0  0  0  0  0  0  0
  1  2  2  0  0  0  0
  2  3  1  0  0  0  0
  2 22  1  0  0  0  0
  3  4  1  0  0  0  0
  3 20  1  0  0  0  0
  3 21  1  0  0  0  0
  4  5  2  0  0  0  0
  4 13  1  0  0  0  0
  5  6  1  0  0  0  0
  5 19  1  0  0  0  0
  6  7  2  0  0  0  0
  7  8  1  0  0  0  0
  7 18  1  0  0  0  0
  8  9  2  0  0  0  0
  8 13  1  0  0  0  0
  9 10  1  0  0  0  0
  9 17  1  0  0  0  0
 10 11  2  0  0  0  0
 10 16  1  0  0  0  0
 11 12  1  0  0  0  0
 11 15  1  0  0  0  0
 12 13  2  0  0  0  0
 12 14  1  0  0  0  0
 22 23  1  0  0  0  0
 22 37  1  0  0  0  0
 23 24  1  0  0  0  0
 23 35  1  0  0  0  0
 23 36  1  0  0  0  0
 24 25  2  0  0  0  0
 24 30  1  0  0  0  0
 25 26  1  0  0  0  0
 25 34  1  0  0  0  0
 26 27  2  0  0  0  0
 26 33  1  0  0  0  0
 27 28  1  0  0  0  0
 27 32  1  0  0  0  0
 28 29  1  0  0  0  0
 28 30  2  0  0  0  0
 30 31  1  0  0  0  0
M  END
>  <MODEL>
       6

$$$$
