best_conformers_53.pdb
 OpenBabel02042510453D

 77 84  0  0  1  0  0  0  0  0999 V2000
    3.6470   -3.9540   25.3720 O   0  0  0  0  0  0  0  0  0  0  0  0
    4.5740   -3.4500   24.7380 C   0  0  0  0  0  0  0  0  0  0  0  0
    5.0060   -2.0380   24.9770 C   0  0  0  0  0  0  0  0  0  0  0  0
    4.4520   -1.3850   26.0760 C   0  0  0  0  0  0  0  0  0  0  0  0
    4.7850   -0.0810   26.3750 C   0  0  0  0  0  0  0  0  0  0  0  0
    5.6630    0.5810   25.5230 C   0  0  0  0  0  0  0  0  0  0  0  0
    6.0950    2.2270   25.8980 Cl  0  0  0  0  0  0  0  0  0  0  0  0
    6.2120   -0.0420   24.4110 C   0  0  0  0  0  0  0  0  0  0  0  0
    5.9180   -1.3920   24.1370 C   0  0  0  0  0  0  0  0  0  0  0  0
    6.5430   -2.1410   22.9550 C   0  0  1  0  0  0  0  0  0  0  0  0
    6.5250   -3.6710   23.2560 C   0  0  0  0  0  0  0  0  0  0  0  0
    5.2450   -4.1440   23.7750 N   0  0  0  0  0  0  0  0  0  0  0  0
    4.7240   -5.4810   23.4830 C   0  0  0  0  0  0  0  0  0  0  0  0
    3.4310   -5.3690   22.6810 C   0  0  0  0  0  0  0  0  0  0  0  0
    2.7150   -6.6740   22.4870 N   0  3  0  0  0  0  0  0  0  0  0  0
    1.7420   -7.1970   23.6120 C   0  0  0  0  0  0  0  0  0  0  0  0
    0.5420   -7.1440   22.6260 C   0  0  0  0  0  0  0  0  0  0  0  0
   -0.4160   -8.2740   22.2420 C   0  0  0  0  0  0  0  0  0  0  0  0
   -1.5560   -7.4700   22.5670 O   0  0  0  0  0  0  0  0  0  0  0  0
   -0.7270   -6.3760   22.9740 C   0  0  0  0  0  0  0  0  0  0  0  0
   -0.8450   -6.1370   24.0390 H   0  0  0  0  0  0  0  0  0  0  0  0
   -0.8970   -5.4690   22.3790 H   0  0  0  0  0  0  0  0  0  0  0  0
   -0.3620   -9.1980   22.8310 H   0  0  0  0  0  0  0  0  0  0  0  0
   -0.3870   -8.5280   21.1730 H   0  0  0  0  0  0  0  0  0  0  0  0
    1.5100   -6.6080   21.5670 C   0  0  0  0  0  0  0  0  0  0  0  0
    1.3150   -5.5760   21.2690 H   0  0  0  0  0  0  0  0  0  0  0  0
    1.6510   -7.2320   20.6870 H   0  0  0  0  0  0  0  0  0  0  0  0
    1.7130   -6.4780   24.4340 H   0  0  0  0  0  0  0  0  0  0  0  0
    2.0780   -8.1760   23.9530 H   0  0  0  0  0  0  0  0  0  0  0  0
    3.3930   -7.4110   22.2150 H   0  0  0  0  0  0  0  0  0  0  0  0
    3.6240   -4.9490   21.6920 H   0  0  0  0  0  0  0  0  0  0  0  0
    2.7420   -4.7070   23.2050 H   0  0  0  0  0  0  0  0  0  0  0  0
    5.4710   -6.0580   22.9270 H   0  0  0  0  0  0  0  0  0  0  0  0
    4.5430   -5.9910   24.4380 H   0  0  0  0  0  0  0  0  0  0  0  0
    7.3170   -3.8990   23.9820 H   0  0  0  0  0  0  0  0  0  0  0  0
    6.7350   -4.2140   22.3320 H   0  0  0  0  0  0  0  0  0  0  0  0
    5.7490   -1.8830   21.6570 C   0  0  0  0  0  0  0  0  0  0  0  0
    4.7400   -2.4510   21.2910 O   0  0  0  0  0  0  0  0  0  0  0  0
    6.4020   -0.9050   20.9430 N   0  0  0  0  0  0  0  0  0  0  0  0
    5.8240   -0.2420   19.8370 C   0  0  0  0  0  0  0  0  0  0  0  0
    6.3260   -0.4550   18.5790 C   0  0  0  0  0  0  0  0  0  0  0  0
    5.8500    0.1240   17.4510 N   0  0  0  0  0  0  0  0  0  0  0  0
    4.8500    0.9630   17.5940 C   0  0  0  0  0  0  0  0  0  0  0  0
    4.2660    1.3100   18.8470 C   0  0  0  0  0  0  0  0  0  0  0  0
    3.2290    2.2750   18.9380 C   0  0  0  0  0  0  0  0  0  0  0  0
    2.7220    2.6310   20.1560 C   0  0  0  0  0  0  0  0  0  0  0  0
    3.2280    2.0420   21.3380 C   0  0  0  0  0  0  0  0  0  0  0  0
    4.2260    1.1000   21.2820 C   0  0  0  0  0  0  0  0  0  0  0  0
    4.7650    0.7040   20.0200 C   0  0  0  0  0  0  0  0  0  0  0  0
    4.6120    0.6650   22.2050 H   0  0  0  0  0  0  0  0  0  0  0  0
    2.8240    2.3490   22.2970 H   0  0  0  0  0  0  0  0  0  0  0  0
    1.9360    3.3780   20.2250 H   0  0  0  0  0  0  0  0  0  0  0  0
    2.8610    2.7250   18.0200 H   0  0  0  0  0  0  0  0  0  0  0  0
    4.4580    1.4260   16.6890 H   0  0  0  0  0  0  0  0  0  0  0  0
    7.1550   -1.1500   18.4430 H   0  0  0  0  0  0  0  0  0  0  0  0
    7.7410   -0.6100   21.3960 C   0  0  0  0  0  0  0  0  0  0  0  0
    7.9570   -1.5620   22.5950 C   0  0  2  0  0  0  0  0  0  0  0  0
    9.0490   -2.6050   22.2750 C   0  0  0  0  0  0  0  0  0  0  0  0
   10.3240   -2.0020   21.9460 N   0  0  0  0  0  0  0  0  0  0  0  0
   11.1950   -1.5740   22.8950 C   0  0  0  0  0  0  0  0  0  0  0  0
   12.3570   -1.0450   22.4560 N   0  0  0  0  0  0  0  0  0  0  0  0
   13.1880   -0.6220   23.4020 C   0  0  0  0  0  0  0  0  0  0  0  0
   12.9120   -0.7070   24.7660 C   0  0  0  0  0  0  0  0  0  0  0  0
   11.6930   -1.2800   25.0930 C   0  0  0  0  0  0  0  0  0  0  0  0
   10.8230   -1.7080   24.1800 N   0  0  0  0  0  0  0  0  0  0  0  0
   11.3810   -1.4140   26.1280 H   0  0  0  0  0  0  0  0  0  0  0  0
   13.6030   -0.3610   25.5290 H   0  0  0  0  0  0  0  0  0  0  0  0
   14.1300   -0.1970   23.0550 H   0  0  0  0  0  0  0  0  0  0  0  0
   10.6610   -1.9980   20.9940 H   0  0  0  0  0  0  0  0  0  0  0  0
    9.1980   -3.2450   23.1490 H   0  0  0  0  0  0  0  0  0  0  0  0
    8.7450   -3.2280   21.4320 H   0  0  0  0  0  0  0  0  0  0  0  0
    8.3420   -1.0060   23.4570 H   0  0  0  0  0  0  0  0  0  0  0  0
    8.4580   -0.7830   20.5820 H   0  0  0  0  0  0  0  0  0  0  0  0
    7.8340    0.4510   21.6780 H   0  0  0  0  0  0  0  0  0  0  0  0
    6.8730    0.5540   23.7870 H   0  0  0  0  0  0  0  0  0  0  0  0
    4.3680    0.4280   27.2390 H   0  0  0  0  0  0  0  0  0  0  0  0
    3.7560   -1.9400   26.6910 H   0  0  0  0  0  0  0  0  0  0  0  0
  1  2  2  0  0  0  0
  2  3  1  0  0  0  0
  2 12  1  0  0  0  0
  3  4  2  0  0  0  0
  3  9  1  0  0  0  0
  4  5  1  0  0  0  0
  4 77  1  0  0  0  0
  5  6  2  0  0  0  0
  5 76  1  0  0  0  0
  6  7  1  0  0  0  0
  6  8  1  0  0  0  0
  8  9  2  0  0  0  0
  8 75  1  0  0  0  0
 10  9  1  1  0  0  0
 10 11  1  0  0  0  0
 10 37  1  0  0  0  0
 10 57  1  0  0  0  0
 11 12  1  0  0  0  0
 11 35  1  0  0  0  0
 11 36  1  0  0  0  0
 12 13  1  0  0  0  0
 13 14  1  0  0  0  0
 13 33  1  0  0  0  0
 13 34  1  0  0  0  0
 14 15  1  0  0  0  0
 14 31  1  0  0  0  0
 14 32  1  0  0  0  0
 15 16  1  0  0  0  0
 15 25  1  0  0  0  0
 15 30  1  0  0  0  0
 16 17  1  0  0  0  0
 16 28  1  0  0  0  0
 16 29  1  0  0  0  0
 17 18  1  0  0  0  0
 17 20  1  0  0  0  0
 17 25  1  0  0  0  0
 18 19  1  0  0  0  0
 18 23  1  0  0  0  0
 18 24  1  0  0  0  0
 19 20  1  0  0  0  0
 20 21  1  0  0  0  0
 20 22  1  0  0  0  0
 25 26  1  0  0  0  0
 25 27  1  0  0  0  0
 37 38  2  0  0  0  0
 37 39  1  0  0  0  0
 39 40  1  0  0  0  0
 39 56  1  0  0  0  0
 40 41  2  0  0  0  0
 40 49  1  0  0  0  0
 41 42  1  0  0  0  0
 41 55  1  0  0  0  0
 42 43  2  0  0  0  0
 43 44  1  0  0  0  0
 43 54  1  0  0  0  0
 44 45  2  0  0  0  0
 44 49  1  0  0  0  0
 45 46  1  0  0  0  0
 45 53  1  0  0  0  0
 46 47  2  0  0  0  0
 46 52  1  0  0  0  0
 47 48  1  0  0  0  0
 47 51  1  0  0  0  0
 48 49  2  0  0  0  0
 48 50  1  0  0  0  0
 56 57  1  0  0  0  0
 56 73  1  0  0  0  0
 56 74  1  0  0  0  0
 57 58  1  0  0  0  0
 57 72  1  1  0  0  0
 58 59  1  0  0  0  0
 58 70  1  0  0  0  0
 58 71  1  0  0  0  0
 59 60  1  0  0  0  0
 59 69  1  0  0  0  0
 60 61  2  0  0  0  0
 60 65  1  0  0  0  0
 61 62  1  0  0  0  0
 62 63  2  0  0  0  0
 62 68  1  0  0  0  0
 63 64  1  0  0  0  0
 63 67  1  0  0  0  0
 64 65  2  0  0  0  0
 64 66  1  0  0  0  0
M  CHG  1  15   1
M  END
>  <MODEL>
       1

$$$$
best_conformers_53.pdb
 OpenBabel02042510453D

 77 84  0  0  1  0  0  0  0  0999 V2000
    3.5340   -4.1010   25.1300 O   0  0  0  0  0  0  0  0  0  0  0  0
    4.5130   -3.5830   24.5920 C   0  0  0  0  0  0  0  0  0  0  0  0
    4.9680   -2.2050   24.9420 C   0  0  0  0  0  0  0  0  0  0  0  0
    4.4020   -1.6060   26.0640 C   0  0  0  0  0  0  0  0  0  0  0  0
    4.7240   -0.3110   26.4110 C   0  0  0  0  0  0  0  0  0  0  0  0
    5.6130    0.3810   25.5910 C   0  0  0  0  0  0  0  0  0  0  0  0
    6.0190    2.0240   25.9870 Cl  0  0  0  0  0  0  0  0  0  0  0  0
    6.1890   -0.2020   24.4750 C   0  0  0  0  0  0  0  0  0  0  0  0
    5.8990   -1.5320   24.1460 C   0  0  0  0  0  0  0  0  0  0  0  0
    6.5110   -2.1980   22.9140 C   0  0  1  0  0  0  0  0  0  0  0  0
    6.4920   -3.7310   23.1280 C   0  0  0  0  0  0  0  0  0  0  0  0
    5.2200   -4.2200   23.6210 N   0  0  0  0  0  0  0  0  0  0  0  0
    4.6500   -5.4600   23.1270 C   0  0  0  0  0  0  0  0  0  0  0  0
    3.5020   -5.1270   22.1850 C   0  0  0  0  0  0  0  0  0  0  0  0
    2.4860   -6.2100   21.9920 N   0  3  0  0  0  0  0  0  0  0  0  0
    2.9460   -7.6370   21.7000 C   0  0  0  0  0  0  0  0  0  0  0  0
    2.1850   -8.1810   22.9180 C   0  0  0  0  0  0  0  0  0  0  0  0
    2.8580   -8.9180   24.0640 C   0  0  0  0  0  0  0  0  0  0  0  0
    2.0900  -10.0970   23.8090 O   0  0  0  0  0  0  0  0  0  0  0  0
    1.3440   -9.4470   22.7740 C   0  0  0  0  0  0  0  0  0  0  0  0
    1.4530   -9.9630   21.8060 H   0  0  0  0  0  0  0  0  0  0  0  0
    0.2860   -9.3310   23.0510 H   0  0  0  0  0  0  0  0  0  0  0  0
    3.9420   -9.0740   23.9650 H   0  0  0  0  0  0  0  0  0  0  0  0
    2.6230   -8.4860   25.0500 H   0  0  0  0  0  0  0  0  0  0  0  0
    1.6470   -6.7540   23.1520 C   0  0  0  0  0  0  0  0  0  0  0  0
    0.5960   -6.6050   22.9170 H   0  0  0  0  0  0  0  0  0  0  0  0
    1.9250   -6.2660   24.0810 H   0  0  0  0  0  0  0  0  0  0  0  0
    4.0270   -7.7130   21.7060 H   0  0  0  0  0  0  0  0  0  0  0  0
    2.5430   -7.9410   20.7350 H   0  0  0  0  0  0  0  0  0  0  0  0
    1.8650   -5.8580   21.2530 H   0  0  0  0  0  0  0  0  0  0  0  0
    2.9510   -4.2950   22.5850 H   0  0  0  0  0  0  0  0  0  0  0  0
    3.8900   -4.8370   21.2090 H   0  0  0  0  0  0  0  0  0  0  0  0
    5.4340   -6.0430   22.6320 H   0  0  0  0  0  0  0  0  0  0  0  0
    4.3010   -6.0400   23.9870 H   0  0  0  0  0  0  0  0  0  0  0  0
    6.6990   -4.2230   22.1750 H   0  0  0  0  0  0  0  0  0  0  0  0
    7.2860   -3.9960   23.8390 H   0  0  0  0  0  0  0  0  0  0  0  0
    5.6850   -1.8310   21.6700 C   0  0  0  0  0  0  0  0  0  0  0  0
    4.5950   -2.2730   21.3640 O   0  0  0  0  0  0  0  0  0  0  0  0
    6.3820   -0.8970   20.9470 N   0  0  0  0  0  0  0  0  0  0  0  0
    5.8100   -0.2180   19.8560 C   0  0  0  0  0  0  0  0  0  0  0  0
    6.2940   -0.4560   18.5960 C   0  0  0  0  0  0  0  0  0  0  0  0
    5.8230    0.1200   17.4670 N   0  0  0  0  0  0  0  0  0  0  0  0
    4.8350    0.9740   17.6180 C   0  0  0  0  0  0  0  0  0  0  0  0
    4.2600    1.3270   18.8740 C   0  0  0  0  0  0  0  0  0  0  0  0
    3.2180    2.2850   18.9560 C   0  0  0  0  0  0  0  0  0  0  0  0
    2.7010    2.6370   20.1700 C   0  0  0  0  0  0  0  0  0  0  0  0
    3.2040    2.0580   21.3580 C   0  0  0  0  0  0  0  0  0  0  0  0
    4.2130    1.1260   21.3130 C   0  0  0  0  0  0  0  0  0  0  0  0
    4.7580    0.7290   20.0510 C   0  0  0  0  0  0  0  0  0  0  0  0
    4.5930    0.7000   22.2450 H   0  0  0  0  0  0  0  0  0  0  0  0
    2.7900    2.3710   22.3120 H   0  0  0  0  0  0  0  0  0  0  0  0
    1.9120    3.3810   20.2270 H   0  0  0  0  0  0  0  0  0  0  0  0
    2.8610    2.7330   18.0320 H   0  0  0  0  0  0  0  0  0  0  0  0
    4.4410    1.4450   16.7180 H   0  0  0  0  0  0  0  0  0  0  0  0
    7.1030   -1.1760   18.4710 H   0  0  0  0  0  0  0  0  0  0  0  0
    7.7300   -0.6420   21.3970 C   0  0  0  0  0  0  0  0  0  0  0  0
    7.9260   -1.6320   22.5640 C   0  0  2  0  0  0  0  0  0  0  0  0
    9.0110   -2.6770   22.2240 C   0  0  0  0  0  0  0  0  0  0  0  0
   10.2920   -2.0580   21.9540 N   0  0  0  0  0  0  0  0  0  0  0  0
   11.1450   -1.6580   22.9380 C   0  0  0  0  0  0  0  0  0  0  0  0
   12.3020   -1.1100   22.5080 N   0  0  0  0  0  0  0  0  0  0  0  0
   13.1140   -0.6560   23.4500 C   0  0  0  0  0  0  0  0  0  0  0  0
   12.8430   -0.7460   24.8150 C   0  0  0  0  0  0  0  0  0  0  0  0
   11.6430   -1.3610   25.1380 C   0  0  0  0  0  0  0  0  0  0  0  0
   10.7820   -1.8180   24.2240 N   0  0  0  0  0  0  0  0  0  0  0  0
   11.3510   -1.4840   26.1820 H   0  0  0  0  0  0  0  0  0  0  0  0
   13.5250   -0.3690   25.5710 H   0  0  0  0  0  0  0  0  0  0  0  0
   14.0320   -0.1880   23.1000 H   0  0  0  0  0  0  0  0  0  0  0  0
   10.6710   -2.0480   21.0180 H   0  0  0  0  0  0  0  0  0  0  0  0
    9.1610   -3.3450   23.0750 H   0  0  0  0  0  0  0  0  0  0  0  0
    8.7130   -3.2750   21.3560 H   0  0  0  0  0  0  0  0  0  0  0  0
    8.3180   -1.1150   23.4430 H   0  0  0  0  0  0  0  0  0  0  0  0
    7.8470    0.4070   21.7070 H   0  0  0  0  0  0  0  0  0  0  0  0
    8.4440   -0.8050   20.5800 H   0  0  0  0  0  0  0  0  0  0  0  0
    6.8680    0.3960   23.8740 H   0  0  0  0  0  0  0  0  0  0  0  0
    4.2890    0.1620   27.2850 H   0  0  0  0  0  0  0  0  0  0  0  0
    3.7020   -2.1940   26.6460 H   0  0  0  0  0  0  0  0  0  0  0  0
  1  2  2  0  0  0  0
  2  3  1  0  0  0  0
  2 12  1  0  0  0  0
  3  4  2  0  0  0  0
  3  9  1  0  0  0  0
  4  5  1  0  0  0  0
  4 77  1  0  0  0  0
  5  6  2  0  0  0  0
  5 76  1  0  0  0  0
  6  7  1  0  0  0  0
  6  8  1  0  0  0  0
  8  9  2  0  0  0  0
  8 75  1  0  0  0  0
 10  9  1  1  0  0  0
 10 11  1  0  0  0  0
 10 37  1  0  0  0  0
 10 57  1  0  0  0  0
 11 12  1  0  0  0  0
 11 35  1  0  0  0  0
 11 36  1  0  0  0  0
 12 13  1  0  0  0  0
 13 14  1  0  0  0  0
 13 33  1  0  0  0  0
 13 34  1  0  0  0  0
 14 15  1  0  0  0  0
 14 31  1  0  0  0  0
 14 32  1  0  0  0  0
 15 16  1  0  0  0  0
 15 25  1  0  0  0  0
 15 30  1  0  0  0  0
 16 17  1  0  0  0  0
 16 28  1  0  0  0  0
 16 29  1  0  0  0  0
 17 18  1  0  0  0  0
 17 20  1  0  0  0  0
 17 25  1  0  0  0  0
 18 19  1  0  0  0  0
 18 23  1  0  0  0  0
 18 24  1  0  0  0  0
 19 20  1  0  0  0  0
 20 21  1  0  0  0  0
 20 22  1  0  0  0  0
 25 26  1  0  0  0  0
 25 27  1  0  0  0  0
 37 38  2  0  0  0  0
 37 39  1  0  0  0  0
 39 40  1  0  0  0  0
 39 56  1  0  0  0  0
 40 41  2  0  0  0  0
 40 49  1  0  0  0  0
 41 42  1  0  0  0  0
 41 55  1  0  0  0  0
 42 43  2  0  0  0  0
 43 44  1  0  0  0  0
 43 54  1  0  0  0  0
 44 45  2  0  0  0  0
 44 49  1  0  0  0  0
 45 46  1  0  0  0  0
 45 53  1  0  0  0  0
 46 47  2  0  0  0  0
 46 52  1  0  0  0  0
 47 48  1  0  0  0  0
 47 51  1  0  0  0  0
 48 49  2  0  0  0  0
 48 50  1  0  0  0  0
 56 57  1  0  0  0  0
 56 73  1  0  0  0  0
 56 74  1  0  0  0  0
 57 58  1  0  0  0  0
 57 72  1  1  0  0  0
 58 59  1  0  0  0  0
 58 70  1  0  0  0  0
 58 71  1  0  0  0  0
 59 60  1  0  0  0  0
 59 69  1  0  0  0  0
 60 61  2  0  0  0  0
 60 65  1  0  0  0  0
 61 62  1  0  0  0  0
 62 63  2  0  0  0  0
 62 68  1  0  0  0  0
 63 64  1  0  0  0  0
 63 67  1  0  0  0  0
 64 65  2  0  0  0  0
 64 66  1  0  0  0  0
M  CHG  1  15   1
M  END
>  <MODEL>
       2

$$$$
best_conformers_53.pdb
 OpenBabel02042510453D

 77 84  0  0  1  0  0  0  0  0999 V2000
    3.5950   -4.0410   25.2190 O   0  0  0  0  0  0  0  0  0  0  0  0
    4.5520   -3.5090   24.6550 C   0  0  0  0  0  0  0  0  0  0  0  0
    5.0030   -2.1230   24.9850 C   0  0  0  0  0  0  0  0  0  0  0  0
    4.4230   -1.5060   26.0930 C   0  0  0  0  0  0  0  0  0  0  0  0
    4.7310   -0.1940   26.4020 C   0  0  0  0  0  0  0  0  0  0  0  0
    5.6160    0.4950   25.5730 C   0  0  0  0  0  0  0  0  0  0  0  0
    5.9860    2.1630   25.9190 Cl  0  0  0  0  0  0  0  0  0  0  0  0
    6.2060   -0.1090   24.4750 C   0  0  0  0  0  0  0  0  0  0  0  0
    5.9350   -1.4510   24.1830 C   0  0  0  0  0  0  0  0  0  0  0  0
    6.5530   -2.1240   22.9570 C   0  0  1  0  0  0  0  0  0  0  0  0
    6.5280   -3.6450   23.1940 C   0  0  0  0  0  0  0  0  0  0  0  0
    5.2450   -4.1280   23.6630 N   0  0  0  0  0  0  0  0  0  0  0  0
    4.6980   -5.3660   23.1500 C   0  0  0  0  0  0  0  0  0  0  0  0
    3.5430   -5.0850   22.1970 C   0  0  0  0  0  0  0  0  0  0  0  0
    2.5960   -6.2270   22.0020 N   0  3  0  0  0  0  0  0  0  0  0  0
    3.1450   -7.6290   21.7390 C   0  0  0  0  0  0  0  0  0  0  0  0
    2.4400   -8.1710   22.9960 C   0  0  0  0  0  0  0  0  0  0  0  0
    1.6090   -9.4460   22.9660 C   0  0  0  0  0  0  0  0  0  0  0  0
    2.3590  -10.0040   24.0430 O   0  0  0  0  0  0  0  0  0  0  0  0
    3.1770   -8.8420   24.1390 C   0  0  0  0  0  0  0  0  0  0  0  0
    4.2370   -9.0580   23.9810 H   0  0  0  0  0  0  0  0  0  0  0  0
    3.0550   -8.3460   25.1070 H   0  0  0  0  0  0  0  0  0  0  0  0
    1.6920  -10.0380   22.0490 H   0  0  0  0  0  0  0  0  0  0  0  0
    0.5530   -9.3320   23.2260 H   0  0  0  0  0  0  0  0  0  0  0  0
    1.8250   -6.7730   23.2000 C   0  0  0  0  0  0  0  0  0  0  0  0
    0.7600   -6.7150   22.9980 H   0  0  0  0  0  0  0  0  0  0  0  0
    2.0830   -6.2470   24.1150 H   0  0  0  0  0  0  0  0  0  0  0  0
    4.2300   -7.6450   21.7230 H   0  0  0  0  0  0  0  0  0  0  0  0
    2.7500   -7.9910   20.7950 H   0  0  0  0  0  0  0  0  0  0  0  0
    1.9480   -5.9160   21.2650 H   0  0  0  0  0  0  0  0  0  0  0  0
    3.9150   -4.7830   21.2210 H   0  0  0  0  0  0  0  0  0  0  0  0
    2.9230   -4.3000   22.5870 H   0  0  0  0  0  0  0  0  0  0  0  0
    4.3680   -5.9600   24.0080 H   0  0  0  0  0  0  0  0  0  0  0  0
    5.5080   -5.9030   22.6460 H   0  0  0  0  0  0  0  0  0  0  0  0
    6.7640   -4.1590   22.2610 H   0  0  0  0  0  0  0  0  0  0  0  0
    7.2970   -3.8890   23.9360 H   0  0  0  0  0  0  0  0  0  0  0  0
    5.7070   -1.7650   21.7270 C   0  0  0  0  0  0  0  0  0  0  0  0
    4.5940   -2.1750   21.4620 O   0  0  0  0  0  0  0  0  0  0  0  0
    6.4040   -0.8760   20.9560 N   0  0  0  0  0  0  0  0  0  0  0  0
    5.8100   -0.2100   19.8620 C   0  0  0  0  0  0  0  0  0  0  0  0
    6.2800   -0.4540   18.5960 C   0  0  0  0  0  0  0  0  0  0  0  0
    5.7990    0.1220   17.4680 N   0  0  0  0  0  0  0  0  0  0  0  0
    4.8170    0.9820   17.6140 C   0  0  0  0  0  0  0  0  0  0  0  0
    4.2520    1.3440   18.8720 C   0  0  0  0  0  0  0  0  0  0  0  0
    3.2080    2.3020   18.9590 C   0  0  0  0  0  0  0  0  0  0  0  0
    2.6910    2.6580   20.1740 C   0  0  0  0  0  0  0  0  0  0  0  0
    3.1980    2.0750   21.3580 C   0  0  0  0  0  0  0  0  0  0  0  0
    4.2080    1.1440   21.3080 C   0  0  0  0  0  0  0  0  0  0  0  0
    4.7560    0.7440   20.0480 C   0  0  0  0  0  0  0  0  0  0  0  0
    4.5940    0.7210   22.2380 H   0  0  0  0  0  0  0  0  0  0  0  0
    2.7840    2.3740   22.3160 H   0  0  0  0  0  0  0  0  0  0  0  0
    1.8920    3.3920   20.2400 H   0  0  0  0  0  0  0  0  0  0  0  0
    2.8410    2.7540   18.0420 H   0  0  0  0  0  0  0  0  0  0  0  0
    4.4240    1.4540   16.7110 H   0  0  0  0  0  0  0  0  0  0  0  0
    7.0740   -1.1880   18.4520 H   0  0  0  0  0  0  0  0  0  0  0  0
    7.7440   -0.5930   21.4140 C   0  0  0  0  0  0  0  0  0  0  0  0
    7.9680   -1.5600   22.5920 C   0  0  2  0  0  0  0  0  0  0  0  0
    9.0740   -2.5880   22.2520 C   0  0  0  0  0  0  0  0  0  0  0  0
   10.3610   -1.9770   22.0150 N   0  0  0  0  0  0  0  0  0  0  0  0
   11.1880   -1.5380   22.9900 C   0  0  0  0  0  0  0  0  0  0  0  0
   10.8030   -1.6920   24.2660 N   0  0  0  0  0  0  0  0  0  0  0  0
   11.6500   -1.2230   25.1830 C   0  0  0  0  0  0  0  0  0  0  0  0
   12.8450   -0.6010   24.8620 C   0  0  0  0  0  0  0  0  0  0  0  0
   13.1280   -0.5020   23.5030 C   0  0  0  0  0  0  0  0  0  0  0  0
   12.3310   -0.9700   22.5570 N   0  0  0  0  0  0  0  0  0  0  0  0
   14.0280   -0.0240   23.1290 H   0  0  0  0  0  0  0  0  0  0  0  0
   13.5260   -0.2270   25.6130 H   0  0  0  0  0  0  0  0  0  0  0  0
   11.3430   -1.3460   26.2190 H   0  0  0  0  0  0  0  0  0  0  0  0
   10.7490   -1.9350   21.0870 H   0  0  0  0  0  0  0  0  0  0  0  0
    8.8090   -3.1680   21.3620 H   0  0  0  0  0  0  0  0  0  0  0  0
    9.1930   -3.2760   23.0890 H   0  0  0  0  0  0  0  0  0  0  0  0
    8.3350   -1.0260   23.4720 H   0  0  0  0  0  0  0  0  0  0  0  0
    7.8350    0.4590   21.7120 H   0  0  0  0  0  0  0  0  0  0  0  0
    8.4560   -0.7540   20.6020 H   0  0  0  0  0  0  0  0  0  0  0  0
    6.8790    0.4800   23.8580 H   0  0  0  0  0  0  0  0  0  0  0  0
    4.2840    0.3140   27.2490 H   0  0  0  0  0  0  0  0  0  0  0  0
    3.7180   -2.0820   26.6840 H   0  0  0  0  0  0  0  0  0  0  0  0
  1  2  2  0  0  0  0
  2  3  1  0  0  0  0
  2 12  1  0  0  0  0
  3  4  2  0  0  0  0
  3  9  1  0  0  0  0
  4  5  1  0  0  0  0
  4 77  1  0  0  0  0
  5  6  2  0  0  0  0
  5 76  1  0  0  0  0
  6  7  1  0  0  0  0
  6  8  1  0  0  0  0
  8  9  2  0  0  0  0
  8 75  1  0  0  0  0
 10  9  1  1  0  0  0
 10 11  1  0  0  0  0
 10 37  1  0  0  0  0
 10 57  1  0  0  0  0
 11 12  1  0  0  0  0
 11 35  1  0  0  0  0
 11 36  1  0  0  0  0
 12 13  1  0  0  0  0
 13 14  1  0  0  0  0
 13 33  1  0  0  0  0
 13 34  1  0  0  0  0
 14 15  1  0  0  0  0
 14 31  1  0  0  0  0
 14 32  1  0  0  0  0
 15 16  1  0  0  0  0
 15 25  1  0  0  0  0
 15 30  1  0  0  0  0
 16 17  1  0  0  0  0
 16 28  1  0  0  0  0
 16 29  1  0  0  0  0
 17 18  1  0  0  0  0
 17 20  1  0  0  0  0
 17 25  1  0  0  0  0
 18 19  1  0  0  0  0
 18 23  1  0  0  0  0
 18 24  1  0  0  0  0
 19 20  1  0  0  0  0
 20 21  1  0  0  0  0
 20 22  1  0  0  0  0
 25 26  1  0  0  0  0
 25 27  1  0  0  0  0
 37 38  2  0  0  0  0
 37 39  1  0  0  0  0
 39 40  1  0  0  0  0
 39 56  1  0  0  0  0
 40 41  2  0  0  0  0
 40 49  1  0  0  0  0
 41 42  1  0  0  0  0
 41 55  1  0  0  0  0
 42 43  2  0  0  0  0
 43 44  1  0  0  0  0
 43 54  1  0  0  0  0
 44 45  2  0  0  0  0
 44 49  1  0  0  0  0
 45 46  1  0  0  0  0
 45 53  1  0  0  0  0
 46 47  2  0  0  0  0
 46 52  1  0  0  0  0
 47 48  1  0  0  0  0
 47 51  1  0  0  0  0
 48 49  2  0  0  0  0
 48 50  1  0  0  0  0
 56 57  1  0  0  0  0
 56 73  1  0  0  0  0
 56 74  1  0  0  0  0
 57 58  1  0  0  0  0
 57 72  1  1  0  0  0
 58 59  1  0  0  0  0
 58 70  1  0  0  0  0
 58 71  1  0  0  0  0
 59 60  1  0  0  0  0
 59 69  1  0  0  0  0
 60 61  2  0  0  0  0
 60 65  1  0  0  0  0
 61 62  1  0  0  0  0
 62 63  2  0  0  0  0
 62 68  1  0  0  0  0
 63 64  1  0  0  0  0
 63 67  1  0  0  0  0
 64 65  2  0  0  0  0
 64 66  1  0  0  0  0
M  CHG  1  15   1
M  END
>  <MODEL>
       3

$$$$
