best_conformers_2.pdb
 OpenBabel02042510453D

 56 60  0  0  1  0  0  0  0  0999 V2000
    5.0280   -8.2140   25.5200 C   0  0  0  0  0  0  0  0  0  0  0  0
    4.4990   -7.0450   24.8470 N   0  0  0  0  0  0  0  0  0  0  0  0
    5.1820   -6.5410   23.7890 C   0  0  0  0  0  0  0  0  0  0  0  0
    6.2030   -7.0550   23.3550 O   0  0  0  0  0  0  0  0  0  0  0  0
    4.5850   -5.2760   23.1590 C   0  0  0  0  0  0  0  0  0  0  0  0
    5.1560   -4.0540   23.6810 N   0  0  0  0  0  0  0  0  0  0  0  0
    6.4760   -3.6440   23.2340 C   0  0  0  0  0  0  0  0  0  0  0  0
    6.5310   -2.1220   22.9870 C   0  0  2  0  0  0  0  0  0  0  0  0
    5.6730   -1.7430   21.7550 C   0  0  0  0  0  0  0  0  0  0  0  0
    4.5490   -2.1310   21.5130 O   0  0  0  0  0  0  0  0  0  0  0  0
    6.3840   -0.8620   20.9690 N   0  0  0  0  0  0  0  0  0  0  0  0
    5.8000   -0.2050   19.8570 C   0  0  0  0  0  0  0  0  0  0  0  0
    6.2560   -0.4580   18.5880 C   0  0  0  0  0  0  0  0  0  0  0  0
    5.7830    0.1320   17.4610 N   0  0  0  0  0  0  0  0  0  0  0  0
    4.8080    1.0010   17.6080 C   0  0  0  0  0  0  0  0  0  0  0  0
    4.2370    1.3630   18.8620 C   0  0  0  0  0  0  0  0  0  0  0  0
    3.1900    2.3230   18.9560 C   0  0  0  0  0  0  0  0  0  0  0  0
    2.6780    2.6710   20.1750 C   0  0  0  0  0  0  0  0  0  0  0  0
    3.1980    2.0870   21.3540 C   0  0  0  0  0  0  0  0  0  0  0  0
    4.2100    1.1620   21.2910 C   0  0  0  0  0  0  0  0  0  0  0  0
    4.7470    0.7560   20.0330 C   0  0  0  0  0  0  0  0  0  0  0  0
    4.6000    0.7270   22.2110 H   0  0  0  0  0  0  0  0  0  0  0  0
    2.7830    2.3720   22.3170 H   0  0  0  0  0  0  0  0  0  0  0  0
    1.8770    3.4020   20.2470 H   0  0  0  0  0  0  0  0  0  0  0  0
    2.8180    2.7760   18.0390 H   0  0  0  0  0  0  0  0  0  0  0  0
    4.4160    1.4590   16.7000 H   0  0  0  0  0  0  0  0  0  0  0  0
    7.0500   -1.1860   18.4310 H   0  0  0  0  0  0  0  0  0  0  0  0
    7.7410   -0.6080   21.4190 C   0  0  0  0  0  0  0  0  0  0  0  0
    7.9460   -1.5850   22.5980 C   0  0  2  0  0  0  0  0  0  0  0  0
    8.9290   -2.6760   22.1800 N   0  3  0  0  0  0  0  0  0  0  0  0
    8.5690   -3.2050   21.3670 H   0  0  0  0  0  0  0  0  0  0  0  0
    9.1000   -3.3230   22.9630 H   0  0  0  0  0  0  0  0  0  0  0  0
    9.8400   -2.2560   21.9220 H   0  0  0  0  0  0  0  0  0  0  0  0
    8.3990   -1.0890   23.4530 H   0  0  0  0  0  0  0  0  0  0  0  0
    8.4690   -0.8100   20.6260 H   0  0  0  0  0  0  0  0  0  0  0  0
    7.8580    0.4450   21.7130 H   0  0  0  0  0  0  0  0  0  0  0  0
    5.9570   -1.4290   24.2210 C   0  0  0  0  0  0  0  0  0  0  0  0
    6.2580   -0.0840   24.4850 C   0  0  0  0  0  0  0  0  0  0  0  0
    5.6930    0.5530   25.5760 C   0  0  0  0  0  0  0  0  0  0  0  0
    6.0740    2.2240   25.8920 Cl  0  0  0  0  0  0  0  0  0  0  0  0
    4.8140   -0.1090   26.4300 C   0  0  0  0  0  0  0  0  0  0  0  0
    4.4850   -1.4230   26.1570 C   0  0  0  0  0  0  0  0  0  0  0  0
    5.0330   -2.0780   25.0550 C   0  0  0  0  0  0  0  0  0  0  0  0
    4.5530   -3.4640   24.7480 C   0  0  0  0  0  0  0  0  0  0  0  0
    3.6580   -4.0340   25.3780 O   0  0  0  0  0  0  0  0  0  0  0  0
    3.7780   -1.9760   26.7670 H   0  0  0  0  0  0  0  0  0  0  0  0
    4.3880    0.4160   27.2760 H   0  0  0  0  0  0  0  0  0  0  0  0
    6.9130    0.4950   23.8420 H   0  0  0  0  0  0  0  0  0  0  0  0
    6.6670   -4.2040   22.3170 H   0  0  0  0  0  0  0  0  0  0  0  0
    7.2180   -3.9170   23.9980 H   0  0  0  0  0  0  0  0  0  0  0  0
    3.5020   -5.2220   23.3100 H   0  0  0  0  0  0  0  0  0  0  0  0
    4.7970   -5.3160   22.0860 H   0  0  0  0  0  0  0  0  0  0  0  0
    3.6690   -6.5680   25.1720 H   0  0  0  0  0  0  0  0  0  0  0  0
    6.0330   -8.0180   25.9190 H   0  0  0  0  0  0  0  0  0  0  0  0
    4.3570   -8.4920   26.3350 H   0  0  0  0  0  0  0  0  0  0  0  0
    5.1140   -9.0320   24.8030 H   0  0  0  0  0  0  0  0  0  0  0  0
  1  2  1  0  0  0  0
  1 54  1  0  0  0  0
  1 55  1  0  0  0  0
  1 56  1  0  0  0  0
  2  3  1  0  0  0  0
  2 53  1  0  0  0  0
  3  4  2  0  0  0  0
  3  5  1  0  0  0  0
  5  6  1  0  0  0  0
  5 51  1  0  0  0  0
  5 52  1  0  0  0  0
  6  7  1  0  0  0  0
  6 44  1  0  0  0  0
  7  8  1  0  0  0  0
  7 49  1  0  0  0  0
  7 50  1  0  0  0  0
  8  9  1  6  0  0  0
  8 29  1  0  0  0  0
  8 37  1  0  0  0  0
  9 10  2  0  0  0  0
  9 11  1  0  0  0  0
 11 12  1  0  0  0  0
 11 28  1  0  0  0  0
 12 13  2  0  0  0  0
 12 21  1  0  0  0  0
 13 14  1  0  0  0  0
 13 27  1  0  0  0  0
 14 15  2  0  0  0  0
 15 16  1  0  0  0  0
 15 26  1  0  0  0  0
 16 17  2  0  0  0  0
 16 21  1  0  0  0  0
 17 18  1  0  0  0  0
 17 25  1  0  0  0  0
 18 19  2  0  0  0  0
 18 24  1  0  0  0  0
 19 20  1  0  0  0  0
 19 23  1  0  0  0  0
 20 21  2  0  0  0  0
 20 22  1  0  0  0  0
 28 29  1  0  0  0  0
 28 35  1  0  0  0  0
 28 36  1  0  0  0  0
 29 30  1  0  0  0  0
 29 34  1  1  0  0  0
 30 31  1  0  0  0  0
 30 32  1  0  0  0  0
 30 33  1  0  0  0  0
 37 38  2  0  0  0  0
 37 43  1  0  0  0  0
 38 39  1  0  0  0  0
 38 48  1  0  0  0  0
 39 40  1  0  0  0  0
 39 41  2  0  0  0  0
 41 42  1  0  0  0  0
 41 47  1  0  0  0  0
 42 43  2  0  0  0  0
 42 46  1  0  0  0  0
 43 44  1  0  0  0  0
 44 45  2  0  0  0  0
M  CHG  1  30   1
M  END
>  <MODEL>
       1

$$$$
best_conformers_2.pdb
 OpenBabel02042510453D

 56 60  0  0  1  0  0  0  0  0999 V2000
    5.6240    0.1750   29.5560 C   0  0  0  0  0  0  0  0  0  0  0  0
    6.0020   -0.8840   28.6340 N   0  0  0  0  0  0  0  0  0  0  0  0
    5.4970   -0.8840   27.3740 C   0  0  0  0  0  0  0  0  0  0  0  0
    4.6440   -0.0850   27.0140 O   0  0  0  0  0  0  0  0  0  0  0  0
    5.9950   -1.9940   26.4390 C   0  0  0  0  0  0  0  0  0  0  0  0
    6.9830   -1.5890   25.4550 N   0  0  0  0  0  0  0  0  0  0  0  0
    6.5620   -0.8130   24.2990 C   0  0  0  0  0  0  0  0  0  0  0  0
    7.4930   -1.0650   23.0890 C   0  0  2  0  0  0  0  0  0  0  0  0
    7.0950   -0.0830   21.9770 C   0  0  0  0  0  0  0  0  0  0  0  0
    7.2770    1.1180   21.9650 O   0  0  0  0  0  0  0  0  0  0  0  0
    6.4530   -0.7840   20.9790 N   0  0  0  0  0  0  0  0  0  0  0  0
    5.8480   -0.1500   19.8660 C   0  0  0  0  0  0  0  0  0  0  0  0
    6.2610   -0.4560   18.5930 C   0  0  0  0  0  0  0  0  0  0  0  0
    5.7730    0.1140   17.4630 N   0  0  0  0  0  0  0  0  0  0  0  0
    4.8090    0.9950   17.6100 C   0  0  0  0  0  0  0  0  0  0  0  0
    4.2420    1.3650   18.8630 C   0  0  0  0  0  0  0  0  0  0  0  0
    3.1810    2.3090   18.9550 C   0  0  0  0  0  0  0  0  0  0  0  0
    2.6300    2.6220   20.1670 C   0  0  0  0  0  0  0  0  0  0  0  0
    3.1110    1.9990   21.3400 C   0  0  0  0  0  0  0  0  0  0  0  0
    4.1380    1.0940   21.2770 C   0  0  0  0  0  0  0  0  0  0  0  0
    4.7550    0.7660   20.0360 C   0  0  0  0  0  0  0  0  0  0  0  0
    4.4960    0.6300   22.1890 H   0  0  0  0  0  0  0  0  0  0  0  0
    2.6720    2.2520   22.3010 H   0  0  0  0  0  0  0  0  0  0  0  0
    1.8270    3.3520   20.2340 H   0  0  0  0  0  0  0  0  0  0  0  0
    2.8250    2.7760   18.0380 H   0  0  0  0  0  0  0  0  0  0  0  0
    4.4210    1.4570   16.7020 H   0  0  0  0  0  0  0  0  0  0  0  0
    7.0460   -1.1940   18.4340 H   0  0  0  0  0  0  0  0  0  0  0  0
    6.3070   -2.2030   21.2430 C   0  0  0  0  0  0  0  0  0  0  0  0
    7.2890   -2.4550   22.3930 C   0  0  2  0  0  0  0  0  0  0  0  0
    6.8430   -3.5580   23.3190 N   0  3  0  0  0  0  0  0  0  0  0  0
    5.9020   -3.3480   23.6980 H   0  0  0  0  0  0  0  0  0  0  0  0
    7.5060   -3.6460   24.1090 H   0  0  0  0  0  0  0  0  0  0  0  0
    6.8080   -4.4600   22.8140 H   0  0  0  0  0  0  0  0  0  0  0  0
    8.2610   -2.7440   21.9900 H   0  0  0  0  0  0  0  0  0  0  0  0
    6.5360   -2.7550   20.3320 H   0  0  0  0  0  0  0  0  0  0  0  0
    5.2750   -2.4480   21.5350 H   0  0  0  0  0  0  0  0  0  0  0  0
    8.9290   -0.8770   23.5450 C   0  0  0  0  0  0  0  0  0  0  0  0
    9.9290   -0.5970   22.6050 C   0  0  0  0  0  0  0  0  0  0  0  0
   11.2460   -0.4840   23.0180 C   0  0  0  0  0  0  0  0  0  0  0  0
   12.4910   -0.0990   21.8650 Cl  0  0  0  0  0  0  0  0  0  0  0  0
   11.6070   -0.6670   24.3530 C   0  0  0  0  0  0  0  0  0  0  0  0
   10.6260   -0.9850   25.2760 C   0  0  0  0  0  0  0  0  0  0  0  0
    9.2970   -1.1070   24.8750 C   0  0  0  0  0  0  0  0  0  0  0  0
    8.2890   -1.5820   25.8690 C   0  0  0  0  0  0  0  0  0  0  0  0
    8.6080   -1.9890   26.9750 O   0  0  0  0  0  0  0  0  0  0  0  0
   10.8600   -1.1810   26.3180 H   0  0  0  0  0  0  0  0  0  0  0  0
   12.6490   -0.5820   24.6420 H   0  0  0  0  0  0  0  0  0  0  0  0
    9.6820   -0.4550   21.5580 H   0  0  0  0  0  0  0  0  0  0  0  0
    5.5220   -1.0860   24.0680 H   0  0  0  0  0  0  0  0  0  0  0  0
    6.5980    0.2660   24.5170 H   0  0  0  0  0  0  0  0  0  0  0  0
    5.1040   -2.3370   25.9070 H   0  0  0  0  0  0  0  0  0  0  0  0
    6.4300   -2.8200   27.0020 H   0  0  0  0  0  0  0  0  0  0  0  0
    6.7600   -1.5120   28.8550 H   0  0  0  0  0  0  0  0  0  0  0  0
    6.1760    0.0360   30.4890 H   0  0  0  0  0  0  0  0  0  0  0  0
    4.5450    0.1580   29.7590 H   0  0  0  0  0  0  0  0  0  0  0  0
    5.8540    1.1610   29.1320 H   0  0  0  0  0  0  0  0  0  0  0  0
  1  2  1  0  0  0  0
  1 54  1  0  0  0  0
  1 55  1  0  0  0  0
  1 56  1  0  0  0  0
  2  3  1  0  0  0  0
  2 53  1  0  0  0  0
  3  4  2  0  0  0  0
  3  5  1  0  0  0  0
  5  6  1  0  0  0  0
  5 51  1  0  0  0  0
  5 52  1  0  0  0  0
  6  7  1  0  0  0  0
  6 44  1  0  0  0  0
  7  8  1  0  0  0  0
  7 49  1  0  0  0  0
  7 50  1  0  0  0  0
  8  9  1  6  0  0  0
  8 29  1  0  0  0  0
  8 37  1  0  0  0  0
  9 10  2  0  0  0  0
  9 11  1  0  0  0  0
 11 12  1  0  0  0  0
 11 28  1  0  0  0  0
 12 13  2  0  0  0  0
 12 21  1  0  0  0  0
 13 14  1  0  0  0  0
 13 27  1  0  0  0  0
 14 15  2  0  0  0  0
 15 16  1  0  0  0  0
 15 26  1  0  0  0  0
 16 17  2  0  0  0  0
 16 21  1  0  0  0  0
 17 18  1  0  0  0  0
 17 25  1  0  0  0  0
 18 19  2  0  0  0  0
 18 24  1  0  0  0  0
 19 20  1  0  0  0  0
 19 23  1  0  0  0  0
 20 21  2  0  0  0  0
 20 22  1  0  0  0  0
 28 29  1  0  0  0  0
 28 35  1  0  0  0  0
 28 36  1  0  0  0  0
 29 30  1  0  0  0  0
 29 34  1  6  0  0  0
 30 31  1  0  0  0  0
 30 32  1  0  0  0  0
 30 33  1  0  0  0  0
 37 38  2  0  0  0  0
 37 43  1  0  0  0  0
 38 39  1  0  0  0  0
 38 48  1  0  0  0  0
 39 40  1  0  0  0  0
 39 41  2  0  0  0  0
 41 42  1  0  0  0  0
 41 47  1  0  0  0  0
 42 43  2  0  0  0  0
 42 46  1  0  0  0  0
 43 44  1  0  0  0  0
 44 45  2  0  0  0  0
M  CHG  1  30   1
M  END
>  <MODEL>
       2

$$$$
