best_conformers_90.pdb
 OpenBabel02042510453D

 62 67  0  0  1  0  0  0  0  0999 V2000
    6.8740   -3.6490   23.2630 C   0  0  0  0  0  0  0  0  0  0  0  0
    7.2540   -2.4770   22.3660 C   0  0  1  0  0  0  0  0  0  0  0  0
    6.2150   -2.1990   21.2750 C   0  0  0  0  0  0  0  0  0  0  0  0
    6.4350   -0.7980   20.9740 N   0  0  0  0  0  0  0  0  0  0  0  0
    5.8390   -0.1570   19.8740 C   0  0  0  0  0  0  0  0  0  0  0  0
    6.2790   -0.4610   18.6120 C   0  0  0  0  0  0  0  0  0  0  0  0
    5.8080    0.1010   17.4760 N   0  0  0  0  0  0  0  0  0  0  0  0
    4.8390    0.9770   17.6180 C   0  0  0  0  0  0  0  0  0  0  0  0
    4.2660    1.3510   18.8680 C   0  0  0  0  0  0  0  0  0  0  0  0
    3.2100    2.2950   18.9450 C   0  0  0  0  0  0  0  0  0  0  0  0
    2.6490    2.6110   20.1510 C   0  0  0  0  0  0  0  0  0  0  0  0
    3.1120    1.9980   21.3370 C   0  0  0  0  0  0  0  0  0  0  0  0
    4.1430    1.0950   21.2930 C   0  0  0  0  0  0  0  0  0  0  0  0
    4.7600    0.7600   20.0490 C   0  0  0  0  0  0  0  0  0  0  0  0
    4.4910    0.6460   22.2190 H   0  0  0  0  0  0  0  0  0  0  0  0
    2.6470    2.2540   22.2860 H   0  0  0  0  0  0  0  0  0  0  0  0
    1.8390    3.3320   20.2000 H   0  0  0  0  0  0  0  0  0  0  0  0
    2.8650    2.7520   18.0200 H   0  0  0  0  0  0  0  0  0  0  0  0
    4.4450    1.4300   16.7100 H   0  0  0  0  0  0  0  0  0  0  0  0
    7.0810   -1.1880   18.5020 H   0  0  0  0  0  0  0  0  0  0  0  0
    7.1060   -0.1000   21.9510 C   0  0  0  0  0  0  0  0  0  0  0  0
    7.2890    1.1010   21.9330 O   0  0  0  0  0  0  0  0  0  0  0  0
    7.4800   -1.0860   23.0680 C   0  0  1  0  0  0  0  0  0  0  0  0
    6.5120   -0.7680   24.2330 C   0  0  0  0  0  0  0  0  0  0  0  0
    6.9220   -1.3530   25.5020 N   0  0  0  0  0  0  0  0  0  0  0  0
    5.9260   -1.3920   26.5600 C   0  0  0  0  0  0  0  0  0  0  0  0
    5.1790   -2.7110   26.6090 C   0  0  0  0  0  0  0  0  0  0  0  0
    6.0420   -3.8190   27.0910 N   0  3  0  0  0  0  0  0  0  0  0  0
    6.3800   -3.9040   28.5920 C   0  0  0  0  0  0  0  0  0  0  0  0
    5.5370   -5.1860   28.7620 C   0  0  0  0  0  0  0  0  0  0  0  0
    5.2950   -5.1490   27.2340 C   0  0  0  0  0  0  0  0  0  0  0  0
    5.7530   -5.9060   26.6090 H   0  0  0  0  0  0  0  0  0  0  0  0
    4.2490   -5.0480   26.9470 H   0  0  0  0  0  0  0  0  0  0  0  0
    6.0300   -6.0750   29.1580 H   0  0  0  0  0  0  0  0  0  0  0  0
    4.6250   -4.9910   29.3240 H   0  0  0  0  0  0  0  0  0  0  0  0
    6.0600   -3.0260   29.1480 H   0  0  0  0  0  0  0  0  0  0  0  0
    7.4560   -4.0230   28.6800 H   0  0  0  0  0  0  0  0  0  0  0  0
    6.9370   -3.8110   26.5670 H   0  0  0  0  0  0  0  0  0  0  0  0
    4.8160   -2.9980   25.6170 H   0  0  0  0  0  0  0  0  0  0  0  0
    4.3010   -2.6030   27.2490 H   0  0  0  0  0  0  0  0  0  0  0  0
    6.4400   -1.2410   27.5150 H   0  0  0  0  0  0  0  0  0  0  0  0
    5.2310   -0.5560   26.4080 H   0  0  0  0  0  0  0  0  0  0  0  0
    8.1950   -1.7330   25.7930 C   0  0  0  0  0  0  0  0  0  0  0  0
    8.4480   -2.4610   26.7560 O   0  0  0  0  0  0  0  0  0  0  0  0
    9.2500   -1.2280   24.8630 C   0  0  0  0  0  0  0  0  0  0  0  0
   10.5680   -1.1060   25.2980 C   0  0  0  0  0  0  0  0  0  0  0  0
   11.5660   -0.7470   24.4100 C   0  0  0  0  0  0  0  0  0  0  0  0
   11.2240   -0.5030   23.0800 C   0  0  0  0  0  0  0  0  0  0  0  0
   12.4790   -0.1330   21.9400 Cl  0  0  0  0  0  0  0  0  0  0  0  0
    9.9150   -0.5890   22.6410 C   0  0  0  0  0  0  0  0  0  0  0  0
    8.9030   -0.9200   23.5450 C   0  0  0  0  0  0  0  0  0  0  0  0
    9.6700   -0.4030   21.6020 H   0  0  0  0  0  0  0  0  0  0  0  0
   12.6010   -0.6840   24.7260 H   0  0  0  0  0  0  0  0  0  0  0  0
   10.7890   -1.3070   26.3400 H   0  0  0  0  0  0  0  0  0  0  0  0
    5.4960   -1.1150   23.9770 H   0  0  0  0  0  0  0  0  0  0  0  0
    6.4620    0.3270   24.3300 H   0  0  0  0  0  0  0  0  0  0  0  0
    6.3570   -2.8010   20.3740 H   0  0  0  0  0  0  0  0  0  0  0  0
    5.1850   -2.3720   21.6340 H   0  0  0  0  0  0  0  0  0  0  0  0
    8.2070   -2.7050   21.8630 H   0  0  0  0  0  0  0  0  0  0  0  0
    5.8880   -3.4870   23.7180 H   0  0  0  0  0  0  0  0  0  0  0  0
    6.8340   -4.5740   22.6750 H   0  0  0  0  0  0  0  0  0  0  0  0
    7.6020   -3.7760   24.0710 H   0  0  0  0  0  0  0  0  0  0  0  0
  1  2  1  0  0  0  0
  1 60  1  0  0  0  0
  1 61  1  0  0  0  0
  1 62  1  0  0  0  0
  2  3  1  0  0  0  0
  2 23  1  0  0  0  0
  2 59  1  6  0  0  0
  3  4  1  0  0  0  0
  3 57  1  0  0  0  0
  3 58  1  0  0  0  0
  4  5  1  0  0  0  0
  4 21  1  0  0  0  0
  5  6  2  0  0  0  0
  5 14  1  0  0  0  0
  6  7  1  0  0  0  0
  6 20  1  0  0  0  0
  7  8  2  0  0  0  0
  8  9  1  0  0  0  0
  8 19  1  0  0  0  0
  9 10  2  0  0  0  0
  9 14  1  0  0  0  0
 10 11  1  0  0  0  0
 10 18  1  0  0  0  0
 11 12  2  0  0  0  0
 11 17  1  0  0  0  0
 12 13  1  0  0  0  0
 12 16  1  0  0  0  0
 13 14  2  0  0  0  0
 13 15  1  0  0  0  0
 21 22  2  0  0  0  0
 23 21  1  6  0  0  0
 23 24  1  0  0  0  0
 23 51  1  0  0  0  0
 24 25  1  0  0  0  0
 24 55  1  0  0  0  0
 24 56  1  0  0  0  0
 25 26  1  0  0  0  0
 25 43  1  0  0  0  0
 26 27  1  0  0  0  0
 26 41  1  0  0  0  0
 26 42  1  0  0  0  0
 27 28  1  0  0  0  0
 27 39  1  0  0  0  0
 27 40  1  0  0  0  0
 28 29  1  0  0  0  0
 28 31  1  0  0  0  0
 28 38  1  0  0  0  0
 29 30  1  0  0  0  0
 29 36  1  0  0  0  0
 29 37  1  0  0  0  0
 30 31  1  0  0  0  0
 30 34  1  0  0  0  0
 30 35  1  0  0  0  0
 31 32  1  0  0  0  0
 31 33  1  0  0  0  0
 43 44  2  0  0  0  0
 43 45  1  0  0  0  0
 45 46  2  0  0  0  0
 45 51  1  0  0  0  0
 46 47  1  0  0  0  0
 46 54  1  0  0  0  0
 47 48  2  0  0  0  0
 47 53  1  0  0  0  0
 48 49  1  0  0  0  0
 48 50  1  0  0  0  0
 50 51  2  0  0  0  0
 50 52  1  0  0  0  0
M  CHG  1  28   1
M  END
>  <MODEL>
       1

$$$$
best_conformers_90.pdb
 OpenBabel02042510453D

 62 67  0  0  1  0  0  0  0  0999 V2000
    8.9960   -2.6690   22.2010 C   0  0  0  0  0  0  0  0  0  0  0  0
    7.9660   -1.5940   22.5990 C   0  0  1  0  0  0  0  0  0  0  0  0
    7.7450   -0.6060   21.4220 C   0  0  0  0  0  0  0  0  0  0  0  0
    6.3950   -0.8720   20.9630 N   0  0  0  0  0  0  0  0  0  0  0  0
    5.8050   -0.2040   19.8550 C   0  0  0  0  0  0  0  0  0  0  0  0
    6.2530   -0.4580   18.5840 C   0  0  0  0  0  0  0  0  0  0  0  0
    5.7780    0.1320   17.4580 N   0  0  0  0  0  0  0  0  0  0  0  0
    4.8060    1.0020   17.6070 C   0  0  0  0  0  0  0  0  0  0  0  0
    4.2370    1.3630   18.8600 C   0  0  0  0  0  0  0  0  0  0  0  0
    3.1910    2.3220   18.9570 C   0  0  0  0  0  0  0  0  0  0  0  0
    2.6790    2.6690   20.1750 C   0  0  0  0  0  0  0  0  0  0  0  0
    3.2000    2.0830   21.3530 C   0  0  0  0  0  0  0  0  0  0  0  0
    4.2120    1.1590   21.2890 C   0  0  0  0  0  0  0  0  0  0  0  0
    4.7480    0.7530   20.0320 C   0  0  0  0  0  0  0  0  0  0  0  0
    4.6020    0.7270   22.2110 H   0  0  0  0  0  0  0  0  0  0  0  0
    2.7840    2.3690   22.3160 H   0  0  0  0  0  0  0  0  0  0  0  0
    1.8770    3.4010   20.2480 H   0  0  0  0  0  0  0  0  0  0  0  0
    2.8160    2.7760   18.0410 H   0  0  0  0  0  0  0  0  0  0  0  0
    4.4140    1.4620   16.7000 H   0  0  0  0  0  0  0  0  0  0  0  0
    7.0460   -1.1870   18.4300 H   0  0  0  0  0  0  0  0  0  0  0  0
    5.6820   -1.7400   21.7580 C   0  0  0  0  0  0  0  0  0  0  0  0
    4.5530   -2.1190   21.5200 O   0  0  0  0  0  0  0  0  0  0  0  0
    6.5370   -2.1170   22.9880 C   0  0  1  0  0  0  0  0  0  0  0  0
    6.4910   -3.6460   23.2250 C   0  0  0  0  0  0  0  0  0  0  0  0
    5.1940   -4.0980   23.6930 N   0  0  0  0  0  0  0  0  0  0  0  0
    4.6080   -5.2700   23.0590 C   0  0  0  0  0  0  0  0  0  0  0  0
    5.3300   -6.5700   23.3820 C   0  0  0  0  0  0  0  0  0  0  0  0
    5.2670   -6.8520   24.8440 N   0  3  0  0  0  0  0  0  0  0  0  0
    3.9130   -7.3560   25.4070 C   0  0  0  0  0  0  0  0  0  0  0  0
    4.5500   -8.7080   25.8590 C   0  0  0  0  0  0  0  0  0  0  0  0
    5.9120   -8.1530   25.3160 C   0  0  0  0  0  0  0  0  0  0  0  0
    6.3580   -8.6790   24.4700 H   0  0  0  0  0  0  0  0  0  0  0  0
    6.6910   -7.9460   26.0450 H   0  0  0  0  0  0  0  0  0  0  0  0
    4.1620   -9.5850   25.3270 H   0  0  0  0  0  0  0  0  0  0  0  0
    4.5030   -8.9350   26.9300 H   0  0  0  0  0  0  0  0  0  0  0  0
    3.1680   -7.4130   24.6160 H   0  0  0  0  0  0  0  0  0  0  0  0
    3.5710   -6.6770   26.1830 H   0  0  0  0  0  0  0  0  0  0  0  0
    5.6100   -6.0130   25.3430 H   0  0  0  0  0  0  0  0  0  0  0  0
    6.3850   -6.5310   23.1000 H   0  0  0  0  0  0  0  0  0  0  0  0
    4.8640   -7.4030   22.8450 H   0  0  0  0  0  0  0  0  0  0  0  0
    3.5690   -5.3190   23.3920 H   0  0  0  0  0  0  0  0  0  0  0  0
    4.6160   -5.1080   21.9740 H   0  0  0  0  0  0  0  0  0  0  0  0
    4.5570   -3.4820   24.7280 C   0  0  0  0  0  0  0  0  0  0  0  0
    3.6610   -4.0330   25.3650 O   0  0  0  0  0  0  0  0  0  0  0  0
    5.0210   -2.0870   25.0430 C   0  0  0  0  0  0  0  0  0  0  0  0
    4.4650   -1.4420   26.1480 C   0  0  0  0  0  0  0  0  0  0  0  0
    4.7920   -0.1300   26.4320 C   0  0  0  0  0  0  0  0  0  0  0  0
    5.6730    0.5430   25.5880 C   0  0  0  0  0  0  0  0  0  0  0  0
    6.0460    2.2140   25.9140 Cl  0  0  0  0  0  0  0  0  0  0  0  0
    6.2440   -0.0870   24.4950 C   0  0  0  0  0  0  0  0  0  0  0  0
    5.9480   -1.4290   24.2210 C   0  0  0  0  0  0  0  0  0  0  0  0
    6.9050    0.4970   23.8590 H   0  0  0  0  0  0  0  0  0  0  0  0
    4.3610    0.3860   27.2810 H   0  0  0  0  0  0  0  0  0  0  0  0
    3.7600   -1.9990   26.7570 H   0  0  0  0  0  0  0  0  0  0  0  0
    7.2630   -3.9090   23.9670 H   0  0  0  0  0  0  0  0  0  0  0  0
    6.6970   -4.1640   22.2830 H   0  0  0  0  0  0  0  0  0  0  0  0
    8.4640   -0.7730   20.6100 H   0  0  0  0  0  0  0  0  0  0  0  0
    7.8520    0.4450   21.7330 H   0  0  0  0  0  0  0  0  0  0  0  0
    8.3920   -1.0680   23.4620 H   0  0  0  0  0  0  0  0  0  0  0  0
    8.6600   -3.2560   21.3380 H   0  0  0  0  0  0  0  0  0  0  0  0
    9.9470   -2.1920   21.9290 H   0  0  0  0  0  0  0  0  0  0  0  0
    9.2060   -3.3590   23.0260 H   0  0  0  0  0  0  0  0  0  0  0  0
  1  2  1  0  0  0  0
  1 60  1  0  0  0  0
  1 61  1  0  0  0  0
  1 62  1  0  0  0  0
  2  3  1  0  0  0  0
  2 23  1  0  0  0  0
  2 59  1  1  0  0  0
  3  4  1  0  0  0  0
  3 57  1  0  0  0  0
  3 58  1  0  0  0  0
  4  5  1  0  0  0  0
  4 21  1  0  0  0  0
  5  6  2  0  0  0  0
  5 14  1  0  0  0  0
  6  7  1  0  0  0  0
  6 20  1  0  0  0  0
  7  8  2  0  0  0  0
  8  9  1  0  0  0  0
  8 19  1  0  0  0  0
  9 10  2  0  0  0  0
  9 14  1  0  0  0  0
 10 11  1  0  0  0  0
 10 18  1  0  0  0  0
 11 12  2  0  0  0  0
 11 17  1  0  0  0  0
 12 13  1  0  0  0  0
 12 16  1  0  0  0  0
 13 14  2  0  0  0  0
 13 15  1  0  0  0  0
 21 22  2  0  0  0  0
 23 21  1  6  0  0  0
 23 24  1  0  0  0  0
 23 51  1  0  0  0  0
 24 25  1  0  0  0  0
 24 55  1  0  0  0  0
 24 56  1  0  0  0  0
 25 26  1  0  0  0  0
 25 43  1  0  0  0  0
 26 27  1  0  0  0  0
 26 41  1  0  0  0  0
 26 42  1  0  0  0  0
 27 28  1  0  0  0  0
 27 39  1  0  0  0  0
 27 40  1  0  0  0  0
 28 29  1  0  0  0  0
 28 31  1  0  0  0  0
 28 38  1  0  0  0  0
 29 30  1  0  0  0  0
 29 36  1  0  0  0  0
 29 37  1  0  0  0  0
 30 31  1  0  0  0  0
 30 34  1  0  0  0  0
 30 35  1  0  0  0  0
 31 32  1  0  0  0  0
 31 33  1  0  0  0  0
 43 44  2  0  0  0  0
 43 45  1  0  0  0  0
 45 46  2  0  0  0  0
 45 51  1  0  0  0  0
 46 47  1  0  0  0  0
 46 54  1  0  0  0  0
 47 48  2  0  0  0  0
 47 53  1  0  0  0  0
 48 49  1  0  0  0  0
 48 50  1  0  0  0  0
 50 51  2  0  0  0  0
 50 52  1  0  0  0  0
M  CHG  1  28   1
M  END
>  <MODEL>
       2

$$$$
best_conformers_90.pdb
 OpenBabel02042510453D

 62 67  0  0  1  0  0  0  0  0999 V2000
    8.9850   -2.6670   22.2000 C   0  0  0  0  0  0  0  0  0  0  0  0
    7.9590   -1.5940   22.5890 C   0  0  1  0  0  0  0  0  0  0  0  0
    7.7370   -0.6030   21.4200 C   0  0  0  0  0  0  0  0  0  0  0  0
    6.3930   -0.8780   20.9570 N   0  0  0  0  0  0  0  0  0  0  0  0
    5.8040   -0.2080   19.8590 C   0  0  0  0  0  0  0  0  0  0  0  0
    6.2700   -0.4560   18.5920 C   0  0  0  0  0  0  0  0  0  0  0  0
    5.7920    0.1240   17.4640 N   0  0  0  0  0  0  0  0  0  0  0  0
    4.8170    0.9920   17.6140 C   0  0  0  0  0  0  0  0  0  0  0  0
    4.2450    1.3500   18.8700 C   0  0  0  0  0  0  0  0  0  0  0  0
    3.2010    2.3100   18.9600 C   0  0  0  0  0  0  0  0  0  0  0  0
    2.6870    2.6650   20.1750 C   0  0  0  0  0  0  0  0  0  0  0  0
    3.1990    2.0840   21.3560 C   0  0  0  0  0  0  0  0  0  0  0  0
    4.2060    1.1530   21.3020 C   0  0  0  0  0  0  0  0  0  0  0  0
    4.7500    0.7480   20.0450 C   0  0  0  0  0  0  0  0  0  0  0  0
    4.5940    0.7320   22.2300 H   0  0  0  0  0  0  0  0  0  0  0  0
    2.7820    2.3760   22.3150 H   0  0  0  0  0  0  0  0  0  0  0  0
    1.8850    3.3950   20.2410 H   0  0  0  0  0  0  0  0  0  0  0  0
    2.8330    2.7620   18.0420 H   0  0  0  0  0  0  0  0  0  0  0  0
    4.4220    1.4540   16.7080 H   0  0  0  0  0  0  0  0  0  0  0  0
    7.0630   -1.1880   18.4460 H   0  0  0  0  0  0  0  0  0  0  0  0
    5.6860   -1.7640   21.7310 C   0  0  0  0  0  0  0  0  0  0  0  0
    4.5740   -2.1730   21.4680 O   0  0  0  0  0  0  0  0  0  0  0  0
    6.5320   -2.1230   22.9660 C   0  0  1  0  0  0  0  0  0  0  0  0
    6.4890   -3.6500   23.2200 C   0  0  0  0  0  0  0  0  0  0  0  0
    5.2020   -4.1120   23.6970 N   0  0  0  0  0  0  0  0  0  0  0  0
    4.5190   -5.1890   23.0040 C   0  0  0  0  0  0  0  0  0  0  0  0
    4.5770   -6.5170   23.7300 C   0  0  0  0  0  0  0  0  0  0  0  0
    5.9850   -6.9560   23.9190 N   0  3  0  0  0  0  0  0  0  0  0  0
    6.7760   -7.4900   22.7000 C   0  0  0  0  0  0  0  0  0  0  0  0
    7.1480   -8.8020   23.4490 C   0  0  0  0  0  0  0  0  0  0  0  0
    6.2510   -8.2850   24.6180 C   0  0  0  0  0  0  0  0  0  0  0  0
    5.3150   -8.8270   24.7400 H   0  0  0  0  0  0  0  0  0  0  0  0
    6.7210   -8.1260   25.5870 H   0  0  0  0  0  0  0  0  0  0  0  0
    8.2060   -8.8900   23.6920 H   0  0  0  0  0  0  0  0  0  0  0  0
    6.8410   -9.7410   22.9700 H   0  0  0  0  0  0  0  0  0  0  0  0
    7.6000   -6.8210   22.4600 H   0  0  0  0  0  0  0  0  0  0  0  0
    6.1200   -7.6110   21.8400 H   0  0  0  0  0  0  0  0  0  0  0  0
    6.4660   -6.1740   24.3950 H   0  0  0  0  0  0  0  0  0  0  0  0
    4.0210   -7.2720   23.1690 H   0  0  0  0  0  0  0  0  0  0  0  0
    4.1290   -6.4230   24.7160 H   0  0  0  0  0  0  0  0  0  0  0  0
    4.9720   -5.2540   22.0090 H   0  0  0  0  0  0  0  0  0  0  0  0
    3.4800   -4.8860   22.8790 H   0  0  0  0  0  0  0  0  0  0  0  0
    4.5380   -3.4800   24.7070 C   0  0  0  0  0  0  0  0  0  0  0  0
    3.5900   -3.9800   25.2980 O   0  0  0  0  0  0  0  0  0  0  0  0
    5.0220   -2.0970   25.0250 C   0  0  0  0  0  0  0  0  0  0  0  0
    4.4610   -1.4700   26.1360 C   0  0  0  0  0  0  0  0  0  0  0  0
    4.7890   -0.1590   26.4280 C   0  0  0  0  0  0  0  0  0  0  0  0
    5.6720    0.5210   25.5880 C   0  0  0  0  0  0  0  0  0  0  0  0
    6.0470    2.1900   25.9300 Cl  0  0  0  0  0  0  0  0  0  0  0  0
    6.2430   -0.0960   24.4860 C   0  0  0  0  0  0  0  0  0  0  0  0
    5.9410   -1.4350   24.1990 C   0  0  0  0  0  0  0  0  0  0  0  0
    6.9160    0.4870   23.8620 H   0  0  0  0  0  0  0  0  0  0  0  0
    4.3540    0.3490   27.2800 H   0  0  0  0  0  0  0  0  0  0  0  0
    3.7550   -2.0500   26.7280 H   0  0  0  0  0  0  0  0  0  0  0  0
    6.7170   -4.1950   22.2980 H   0  0  0  0  0  0  0  0  0  0  0  0
    7.2500   -3.8730   23.9820 H   0  0  0  0  0  0  0  0  0  0  0  0
    8.4600   -0.7610   20.6090 H   0  0  0  0  0  0  0  0  0  0  0  0
    7.8240    0.4490   21.7280 H   0  0  0  0  0  0  0  0  0  0  0  0
    8.3680   -1.0720   23.4610 H   0  0  0  0  0  0  0  0  0  0  0  0
    9.1840   -3.3540   23.0260 H   0  0  0  0  0  0  0  0  0  0  0  0
    9.9360   -2.1950   21.9380 H   0  0  0  0  0  0  0  0  0  0  0  0
    8.6520   -3.2510   21.3360 H   0  0  0  0  0  0  0  0  0  0  0  0
  1  2  1  0  0  0  0
  1 60  1  0  0  0  0
  1 61  1  0  0  0  0
  1 62  1  0  0  0  0
  2  3  1  0  0  0  0
  2 23  1  0  0  0  0
  2 59  1  1  0  0  0
  3  4  1  0  0  0  0
  3 57  1  0  0  0  0
  3 58  1  0  0  0  0
  4  5  1  0  0  0  0
  4 21  1  0  0  0  0
  5  6  2  0  0  0  0
  5 14  1  0  0  0  0
  6  7  1  0  0  0  0
  6 20  1  0  0  0  0
  7  8  2  0  0  0  0
  8  9  1  0  0  0  0
  8 19  1  0  0  0  0
  9 10  2  0  0  0  0
  9 14  1  0  0  0  0
 10 11  1  0  0  0  0
 10 18  1  0  0  0  0
 11 12  2  0  0  0  0
 11 17  1  0  0  0  0
 12 13  1  0  0  0  0
 12 16  1  0  0  0  0
 13 14  2  0  0  0  0
 13 15  1  0  0  0  0
 21 22  2  0  0  0  0
 23 21  1  6  0  0  0
 23 24  1  0  0  0  0
 23 51  1  0  0  0  0
 24 25  1  0  0  0  0
 24 55  1  0  0  0  0
 24 56  1  0  0  0  0
 25 26  1  0  0  0  0
 25 43  1  0  0  0  0
 26 27  1  0  0  0  0
 26 41  1  0  0  0  0
 26 42  1  0  0  0  0
 27 28  1  0  0  0  0
 27 39  1  0  0  0  0
 27 40  1  0  0  0  0
 28 29  1  0  0  0  0
 28 31  1  0  0  0  0
 28 38  1  0  0  0  0
 29 30  1  0  0  0  0
 29 36  1  0  0  0  0
 29 37  1  0  0  0  0
 30 31  1  0  0  0  0
 30 34  1  0  0  0  0
 30 35  1  0  0  0  0
 31 32  1  0  0  0  0
 31 33  1  0  0  0  0
 43 44  2  0  0  0  0
 43 45  1  0  0  0  0
 45 46  2  0  0  0  0
 45 51  1  0  0  0  0
 46 47  1  0  0  0  0
 46 54  1  0  0  0  0
 47 48  2  0  0  0  0
 47 53  1  0  0  0  0
 48 49  1  0  0  0  0
 48 50  1  0  0  0  0
 50 51  2  0  0  0  0
 50 52  1  0  0  0  0
M  CHG  1  28   1
M  END
>  <MODEL>
       3

$$$$
best_conformers_90.pdb
 OpenBabel02042510453D

 62 67  0  0  1  0  0  0  0  0999 V2000
    8.9690   -2.6470   22.2030 C   0  0  0  0  0  0  0  0  0  0  0  0
    7.9390   -1.5800   22.5870 C   0  0  1  0  0  0  0  0  0  0  0  0
    7.7260   -0.5910   21.4200 C   0  0  0  0  0  0  0  0  0  0  0  0
    6.3980   -0.8890   20.9410 N   0  0  0  0  0  0  0  0  0  0  0  0
    5.8150   -0.2150   19.8480 C   0  0  0  0  0  0  0  0  0  0  0  0
    6.3050   -0.4470   18.5920 C   0  0  0  0  0  0  0  0  0  0  0  0
    5.8300    0.1260   17.4610 N   0  0  0  0  0  0  0  0  0  0  0  0
    4.8390    0.9760   17.6140 C   0  0  0  0  0  0  0  0  0  0  0  0
    4.2620    1.3270   18.8680 C   0  0  0  0  0  0  0  0  0  0  0  0
    3.2180    2.2810   18.9500 C   0  0  0  0  0  0  0  0  0  0  0  0
    2.7050    2.6410   20.1620 C   0  0  0  0  0  0  0  0  0  0  0  0
    3.2120    2.0660   21.3520 C   0  0  0  0  0  0  0  0  0  0  0  0
    4.2190    1.1320   21.3080 C   0  0  0  0  0  0  0  0  0  0  0  0
    4.7630    0.7310   20.0490 C   0  0  0  0  0  0  0  0  0  0  0  0
    4.6030    0.7060   22.2390 H   0  0  0  0  0  0  0  0  0  0  0  0
    2.7970    2.3760   22.3060 H   0  0  0  0  0  0  0  0  0  0  0  0
    1.9170    3.3860   20.2210 H   0  0  0  0  0  0  0  0  0  0  0  0
    2.8640    2.7290   18.0240 H   0  0  0  0  0  0  0  0  0  0  0  0
    4.4370    1.4360   16.7120 H   0  0  0  0  0  0  0  0  0  0  0  0
    7.1250   -1.1560   18.4690 H   0  0  0  0  0  0  0  0  0  0  0  0
    5.7050   -1.8210   21.6640 C   0  0  0  0  0  0  0  0  0  0  0  0
    4.6450   -2.3040   21.3080 O   0  0  0  0  0  0  0  0  0  0  0  0
    6.5160   -2.1360   22.9360 C   0  0  1  0  0  0  0  0  0  0  0  0
    6.5080   -3.6560   23.1910 C   0  0  0  0  0  0  0  0  0  0  0  0
    5.2080   -4.1120   23.6400 N   0  0  0  0  0  0  0  0  0  0  0  0
    4.5190   -5.1520   22.8890 C   0  0  0  0  0  0  0  0  0  0  0  0
    5.0610   -6.5380   23.1690 C   0  0  0  0  0  0  0  0  0  0  0  0
    4.6330   -6.9520   24.5390 N   0  3  0  0  0  0  0  0  0  0  0  0
    5.5480   -6.5490   25.7160 C   0  0  0  0  0  0  0  0  0  0  0  0
    5.9200   -8.0300   26.0070 C   0  0  0  0  0  0  0  0  0  0  0  0
    4.8680   -8.4120   24.9220 C   0  0  0  0  0  0  0  0  0  0  0  0
    3.9380   -8.8150   25.3070 H   0  0  0  0  0  0  0  0  0  0  0  0
    5.2180   -8.9850   24.0650 H   0  0  0  0  0  0  0  0  0  0  0  0
    5.7340   -8.3780   27.0280 H   0  0  0  0  0  0  0  0  0  0  0  0
    6.9510   -8.2310   25.7050 H   0  0  0  0  0  0  0  0  0  0  0  0
    6.3610   -5.9080   25.3820 H   0  0  0  0  0  0  0  0  0  0  0  0
    4.9610   -6.0530   26.4840 H   0  0  0  0  0  0  0  0  0  0  0  0
    3.6640   -6.6440   24.7140 H   0  0  0  0  0  0  0  0  0  0  0  0
    4.6870   -7.2740   22.4540 H   0  0  0  0  0  0  0  0  0  0  0  0
    6.1550   -6.5470   23.1370 H   0  0  0  0  0  0  0  0  0  0  0  0
    4.5830   -4.8970   21.8270 H   0  0  0  0  0  0  0  0  0  0  0  0
    3.4730   -5.1270   23.2030 H   0  0  0  0  0  0  0  0  0  0  0  0
    4.5750   -3.5340   24.6950 C   0  0  0  0  0  0  0  0  0  0  0  0
    3.7090   -4.1310   25.3360 O   0  0  0  0  0  0  0  0  0  0  0  0
    4.9960   -2.1250   24.9970 C   0  0  0  0  0  0  0  0  0  0  0  0
    4.4400   -1.4870   26.1050 C   0  0  0  0  0  0  0  0  0  0  0  0
    4.7540   -0.1760   26.4060 C   0  0  0  0  0  0  0  0  0  0  0  0
    5.6310    0.5040   25.5590 C   0  0  0  0  0  0  0  0  0  0  0  0
    6.0610    2.1530   25.9270 Cl  0  0  0  0  0  0  0  0  0  0  0  0
    6.1900   -0.1120   24.4520 C   0  0  0  0  0  0  0  0  0  0  0  0
    5.8950   -1.4490   24.1550 C   0  0  0  0  0  0  0  0  0  0  0  0
    6.8790    0.4660   23.8420 H   0  0  0  0  0  0  0  0  0  0  0  0
    4.3400    0.3200   27.2790 H   0  0  0  0  0  0  0  0  0  0  0  0
    3.7450   -2.0480   26.7250 H   0  0  0  0  0  0  0  0  0  0  0  0
    7.2950   -3.8810   23.9310 H   0  0  0  0  0  0  0  0  0  0  0  0
    6.7440   -4.1860   22.2680 H   0  0  0  0  0  0  0  0  0  0  0  0
    7.8090    0.4610   21.7290 H   0  0  0  0  0  0  0  0  0  0  0  0
    8.4590   -0.7350   20.6170 H   0  0  0  0  0  0  0  0  0  0  0  0
    8.3400   -1.0580   23.4620 H   0  0  0  0  0  0  0  0  0  0  0  0
    9.1580   -3.3300   23.0340 H   0  0  0  0  0  0  0  0  0  0  0  0
    9.9190   -2.1740   21.9410 H   0  0  0  0  0  0  0  0  0  0  0  0
    8.6360   -3.2380   21.3450 H   0  0  0  0  0  0  0  0  0  0  0  0
  1  2  1  0  0  0  0
  1 60  1  0  0  0  0
  1 61  1  0  0  0  0
  1 62  1  0  0  0  0
  2  3  1  0  0  0  0
  2 23  1  0  0  0  0
  2 59  1  1  0  0  0
  3  4  1  0  0  0  0
  3 57  1  0  0  0  0
  3 58  1  0  0  0  0
  4  5  1  0  0  0  0
  4 21  1  0  0  0  0
  5  6  2  0  0  0  0
  5 14  1  0  0  0  0
  6  7  1  0  0  0  0
  6 20  1  0  0  0  0
  7  8  2  0  0  0  0
  8  9  1  0  0  0  0
  8 19  1  0  0  0  0
  9 10  2  0  0  0  0
  9 14  1  0  0  0  0
 10 11  1  0  0  0  0
 10 18  1  0  0  0  0
 11 12  2  0  0  0  0
 11 17  1  0  0  0  0
 12 13  1  0  0  0  0
 12 16  1  0  0  0  0
 13 14  2  0  0  0  0
 13 15  1  0  0  0  0
 21 22  2  0  0  0  0
 23 21  1  6  0  0  0
 23 24  1  0  0  0  0
 23 51  1  0  0  0  0
 24 25  1  0  0  0  0
 24 55  1  0  0  0  0
 24 56  1  0  0  0  0
 25 26  1  0  0  0  0
 25 43  1  0  0  0  0
 26 27  1  0  0  0  0
 26 41  1  0  0  0  0
 26 42  1  0  0  0  0
 27 28  1  0  0  0  0
 27 39  1  0  0  0  0
 27 40  1  0  0  0  0
 28 29  1  0  0  0  0
 28 31  1  0  0  0  0
 28 38  1  0  0  0  0
 29 30  1  0  0  0  0
 29 36  1  0  0  0  0
 29 37  1  0  0  0  0
 30 31  1  0  0  0  0
 30 34  1  0  0  0  0
 30 35  1  0  0  0  0
 31 32  1  0  0  0  0
 31 33  1  0  0  0  0
 43 44  2  0  0  0  0
 43 45  1  0  0  0  0
 45 46  2  0  0  0  0
 45 51  1  0  0  0  0
 46 47  1  0  0  0  0
 46 54  1  0  0  0  0
 47 48  2  0  0  0  0
 47 53  1  0  0  0  0
 48 49  1  0  0  0  0
 48 50  1  0  0  0  0
 50 51  2  0  0  0  0
 50 52  1  0  0  0  0
M  CHG  1  28   1
M  END
>  <MODEL>
       4

$$$$
