best_conformers_59.pdb
 OpenBabel02042510453D

 60 65  0  0  1  0  0  0  0  0999 V2000
   11.1600   -2.0860   22.9320 C   0  0  0  0  0  0  0  0  0  0  0  0
   10.2430   -2.1070   21.8670 O   0  0  0  0  0  0  0  0  0  0  0  0
    8.9960   -2.6830   22.1900 C   0  0  0  0  0  0  0  0  0  0  0  0
    7.9700   -1.5990   22.5890 C   0  0  1  0  0  0  0  0  0  0  0  0
    7.7550   -0.6160   21.4120 C   0  0  0  0  0  0  0  0  0  0  0  0
    6.3990   -0.8700   20.9590 N   0  0  0  0  0  0  0  0  0  0  0  0
    5.8040   -0.2060   19.8550 C   0  0  0  0  0  0  0  0  0  0  0  0
    6.2570   -0.4590   18.5850 C   0  0  0  0  0  0  0  0  0  0  0  0
    5.7820    0.1300   17.4590 N   0  0  0  0  0  0  0  0  0  0  0  0
    4.8090    0.9990   17.6090 C   0  0  0  0  0  0  0  0  0  0  0  0
    4.2390    1.3600   18.8630 C   0  0  0  0  0  0  0  0  0  0  0  0
    3.1930    2.3200   18.9570 C   0  0  0  0  0  0  0  0  0  0  0  0
    2.6790    2.6690   20.1750 C   0  0  0  0  0  0  0  0  0  0  0  0
    3.1990    2.0850   21.3550 C   0  0  0  0  0  0  0  0  0  0  0  0
    4.2110    1.1600   21.2930 C   0  0  0  0  0  0  0  0  0  0  0  0
    4.7500    0.7540   20.0350 C   0  0  0  0  0  0  0  0  0  0  0  0
    4.6000    0.7280   22.2150 H   0  0  0  0  0  0  0  0  0  0  0  0
    2.7830    2.3710   22.3160 H   0  0  0  0  0  0  0  0  0  0  0  0
    1.8780    3.4000   20.2470 H   0  0  0  0  0  0  0  0  0  0  0  0
    2.8190    2.7730   18.0410 H   0  0  0  0  0  0  0  0  0  0  0  0
    4.4160    1.4590   16.7010 H   0  0  0  0  0  0  0  0  0  0  0  0
    7.0500   -1.1890   18.4310 H   0  0  0  0  0  0  0  0  0  0  0  0
    5.6860   -1.7430   21.7520 C   0  0  0  0  0  0  0  0  0  0  0  0
    4.5610   -2.1290   21.5110 O   0  0  0  0  0  0  0  0  0  0  0  0
    6.5440   -2.1160   22.9790 C   0  0  1  0  0  0  0  0  0  0  0  0
    6.4760   -3.6380   23.2210 C   0  0  0  0  0  0  0  0  0  0  0  0
    5.1490   -4.0390   23.6390 N   0  0  0  0  0  0  0  0  0  0  0  0
    4.6000   -5.2660   23.1070 C   0  0  0  0  0  0  0  0  0  0  0  0
    5.1850   -6.4980   23.7340 C   0  0  0  0  0  0  0  0  0  0  0  0
    6.2850   -7.1060   23.3470 N   0  0  0  0  0  0  0  0  0  0  0  0
    6.4650   -8.1410   24.2350 C   0  0  0  0  0  0  0  0  0  0  0  0
    5.4570   -8.1550   25.1640 C   0  0  0  0  0  0  0  0  0  0  0  0
    4.6400   -7.0930   24.8290 N   0  0  0  0  0  0  0  0  0  0  0  0
    3.8250   -6.7590   25.3280 H   0  0  0  0  0  0  0  0  0  0  0  0
    5.2520   -8.7720   26.0240 H   0  0  0  0  0  0  0  0  0  0  0  0
    7.3360   -8.7840   24.1390 H   0  0  0  0  0  0  0  0  0  0  0  0
    4.8110   -5.2670   22.0320 H   0  0  0  0  0  0  0  0  0  0  0  0
    3.5190   -5.2260   23.2610 H   0  0  0  0  0  0  0  0  0  0  0  0
    4.5550   -3.4800   24.7300 C   0  0  0  0  0  0  0  0  0  0  0  0
    3.6890   -4.0770   25.3650 O   0  0  0  0  0  0  0  0  0  0  0  0
    5.0300   -2.0890   25.0460 C   0  0  0  0  0  0  0  0  0  0  0  0
    4.4820   -1.4380   26.1510 C   0  0  0  0  0  0  0  0  0  0  0  0
    4.8100   -0.1230   26.4270 C   0  0  0  0  0  0  0  0  0  0  0  0
    5.6860    0.5450   25.5760 C   0  0  0  0  0  0  0  0  0  0  0  0
    6.0630    2.2170   25.8920 Cl  0  0  0  0  0  0  0  0  0  0  0  0
    6.2520   -0.0880   24.4830 C   0  0  0  0  0  0  0  0  0  0  0  0
    5.9560   -1.4320   24.2170 C   0  0  0  0  0  0  0  0  0  0  0  0
    6.9050    0.4970   23.8410 H   0  0  0  0  0  0  0  0  0  0  0  0
    4.3830    0.4010   27.2750 H   0  0  0  0  0  0  0  0  0  0  0  0
    3.7780   -1.9920   26.7640 H   0  0  0  0  0  0  0  0  0  0  0  0
    6.6960   -4.1900   22.3050 H   0  0  0  0  0  0  0  0  0  0  0  0
    7.2090   -3.9120   23.9960 H   0  0  0  0  0  0  0  0  0  0  0  0
    8.4740   -0.8010   20.6060 H   0  0  0  0  0  0  0  0  0  0  0  0
    7.8770    0.4350   21.7120 H   0  0  0  0  0  0  0  0  0  0  0  0
    8.4210   -1.0900   23.4500 H   0  0  0  0  0  0  0  0  0  0  0  0
    8.6480   -3.2160   21.2970 H   0  0  0  0  0  0  0  0  0  0  0  0
    9.1310   -3.4150   22.9980 H   0  0  0  0  0  0  0  0  0  0  0  0
   10.7500   -1.5930   23.8270 H   0  0  0  0  0  0  0  0  0  0  0  0
   11.4790   -3.1000   23.2210 H   0  0  0  0  0  0  0  0  0  0  0  0
   12.0300   -1.5240   22.5840 H   0  0  0  0  0  0  0  0  0  0  0  0
  1  2  1  0  0  0  0
  1 58  1  0  0  0  0
  1 59  1  0  0  0  0
  1 60  1  0  0  0  0
  2  3  1  0  0  0  0
  3  4  1  0  0  0  0
  3 56  1  0  0  0  0
  3 57  1  0  0  0  0
  4  5  1  0  0  0  0
  4 25  1  0  0  0  0
  4 55  1  1  0  0  0
  5  6  1  0  0  0  0
  5 53  1  0  0  0  0
  5 54  1  0  0  0  0
  6  7  1  0  0  0  0
  6 23  1  0  0  0  0
  7  8  2  0  0  0  0
  7 16  1  0  0  0  0
  8  9  1  0  0  0  0
  8 22  1  0  0  0  0
  9 10  2  0  0  0  0
 10 11  1  0  0  0  0
 10 21  1  0  0  0  0
 11 12  2  0  0  0  0
 11 16  1  0  0  0  0
 12 13  1  0  0  0  0
 12 20  1  0  0  0  0
 13 14  2  0  0  0  0
 13 19  1  0  0  0  0
 14 15  1  0  0  0  0
 14 18  1  0  0  0  0
 15 16  2  0  0  0  0
 15 17  1  0  0  0  0
 23 24  2  0  0  0  0
 25 23  1  6  0  0  0
 25 26  1  0  0  0  0
 25 47  1  0  0  0  0
 26 27  1  0  0  0  0
 26 51  1  0  0  0  0
 26 52  1  0  0  0  0
 27 28  1  0  0  0  0
 27 39  1  0  0  0  0
 28 29  1  0  0  0  0
 28 37  1  0  0  0  0
 28 38  1  0  0  0  0
 29 30  2  0  0  0  0
 29 33  1  0  0  0  0
 30 31  1  0  0  0  0
 31 32  2  0  0  0  0
 31 36  1  0  0  0  0
 32 33  1  0  0  0  0
 32 35  1  0  0  0  0
 33 34  1  0  0  0  0
 39 40  2  0  0  0  0
 39 41  1  0  0  0  0
 41 42  2  0  0  0  0
 41 47  1  0  0  0  0
 42 43  1  0  0  0  0
 42 50  1  0  0  0  0
 43 44  2  0  0  0  0
 43 49  1  0  0  0  0
 44 45  1  0  0  0  0
 44 46  1  0  0  0  0
 46 47  2  0  0  0  0
 46 48  1  0  0  0  0
M  END
>  <MODEL>
       1

$$$$
best_conformers_59.pdb
 OpenBabel02042510453D

 60 65  0  0  1  0  0  0  0  0999 V2000
    7.8570   -5.2410   24.7020 C   0  0  0  0  0  0  0  0  0  0  0  0
    7.9750   -3.9530   24.1480 O   0  0  0  0  0  0  0  0  0  0  0  0
    6.9300   -3.6710   23.2470 C   0  0  0  0  0  0  0  0  0  0  0  0
    7.3090   -2.4640   22.3940 C   0  0  1  0  0  0  0  0  0  0  0  0
    6.3050   -2.2090   21.2630 C   0  0  0  0  0  0  0  0  0  0  0  0
    6.4570   -0.7920   20.9790 N   0  0  0  0  0  0  0  0  0  0  0  0
    5.8500   -0.1540   19.8680 C   0  0  0  0  0  0  0  0  0  0  0  0
    6.2610   -0.4580   18.5940 C   0  0  0  0  0  0  0  0  0  0  0  0
    5.7730    0.1140   17.4660 N   0  0  0  0  0  0  0  0  0  0  0  0
    4.8090    0.9950   17.6110 C   0  0  0  0  0  0  0  0  0  0  0  0
    4.2430    1.3640   18.8630 C   0  0  0  0  0  0  0  0  0  0  0  0
    3.1800    2.3080   18.9560 C   0  0  0  0  0  0  0  0  0  0  0  0
    2.6300    2.6210   20.1680 C   0  0  0  0  0  0  0  0  0  0  0  0
    3.1130    1.9980   21.3420 C   0  0  0  0  0  0  0  0  0  0  0  0
    4.1420    1.0920   21.2770 C   0  0  0  0  0  0  0  0  0  0  0  0
    4.7580    0.7650   20.0350 C   0  0  0  0  0  0  0  0  0  0  0  0
    4.5030    0.6260   22.1880 H   0  0  0  0  0  0  0  0  0  0  0  0
    2.6740    2.2510   22.3030 H   0  0  0  0  0  0  0  0  0  0  0  0
    1.8260    3.3510   20.2370 H   0  0  0  0  0  0  0  0  0  0  0  0
    2.8230    2.7750   18.0400 H   0  0  0  0  0  0  0  0  0  0  0  0
    4.4230    1.4550   16.7030 H   0  0  0  0  0  0  0  0  0  0  0  0
    7.0460   -1.1970   18.4340 H   0  0  0  0  0  0  0  0  0  0  0  0
    7.1070   -0.0930   21.9730 C   0  0  0  0  0  0  0  0  0  0  0  0
    7.2840    1.1120   21.9570 O   0  0  0  0  0  0  0  0  0  0  0  0
    7.4810   -1.0750   23.1030 C   0  0  1  0  0  0  0  0  0  0  0  0
    6.4770   -0.7960   24.2500 C   0  0  0  0  0  0  0  0  0  0  0  0
    6.8680   -1.3520   25.5340 N   0  0  0  0  0  0  0  0  0  0  0  0
    5.8440   -1.5830   26.5360 C   0  0  0  0  0  0  0  0  0  0  0  0
    5.4860   -3.0320   26.7380 C   0  0  0  0  0  0  0  0  0  0  0  0
    4.5420   -3.6790   26.0850 N   0  0  0  0  0  0  0  0  0  0  0  0
    4.5130   -4.9390   26.6340 C   0  0  0  0  0  0  0  0  0  0  0  0
    5.4550   -5.0550   27.6270 C   0  0  0  0  0  0  0  0  0  0  0  0
    6.0750   -3.8200   27.6820 N   0  0  0  0  0  0  0  0  0  0  0  0
    6.8870   -3.5380   28.2230 H   0  0  0  0  0  0  0  0  0  0  0  0
    5.7460   -5.8920   28.2430 H   0  0  0  0  0  0  0  0  0  0  0  0
    3.8240   -5.6790   26.2410 H   0  0  0  0  0  0  0  0  0  0  0  0
    4.9510   -1.0450   26.2120 H   0  0  0  0  0  0  0  0  0  0  0  0
    6.1930   -1.1590   27.4830 H   0  0  0  0  0  0  0  0  0  0  0  0
    8.1560   -1.5410   25.9300 C   0  0  0  0  0  0  0  0  0  0  0  0
    8.4040   -2.0530   27.0140 O   0  0  0  0  0  0  0  0  0  0  0  0
    9.2130   -1.1020   24.9590 C   0  0  0  0  0  0  0  0  0  0  0  0
   10.5320   -0.9900   25.3900 C   0  0  0  0  0  0  0  0  0  0  0  0
   11.5410   -0.6620   24.4990 C   0  0  0  0  0  0  0  0  0  0  0  0
   11.2190   -0.4620   23.1580 C   0  0  0  0  0  0  0  0  0  0  0  0
   12.4850   -0.0660   22.0330 Cl  0  0  0  0  0  0  0  0  0  0  0  0
    9.9160   -0.5760   22.7090 C   0  0  0  0  0  0  0  0  0  0  0  0
    8.8900   -0.8720   23.6160 C   0  0  0  0  0  0  0  0  0  0  0  0
    9.6960   -0.4160   21.6580 H   0  0  0  0  0  0  0  0  0  0  0  0
   12.5740   -0.5740   24.8160 H   0  0  0  0  0  0  0  0  0  0  0  0
   10.7460   -1.1860   26.4350 H   0  0  0  0  0  0  0  0  0  0  0  0
    6.3760    0.3030   24.3080 H   0  0  0  0  0  0  0  0  0  0  0  0
    5.5020   -1.2380   23.9930 H   0  0  0  0  0  0  0  0  0  0  0  0
    5.2760   -2.4480   21.5780 H   0  0  0  0  0  0  0  0  0  0  0  0
    6.5110   -2.7870   20.3630 H   0  0  0  0  0  0  0  0  0  0  0  0
    8.2940   -2.6860   21.9650 H   0  0  0  0  0  0  0  0  0  0  0  0
    6.7760   -4.5440   22.5890 H   0  0  0  0  0  0  0  0  0  0  0  0
    5.9860   -3.5030   23.7900 H   0  0  0  0  0  0  0  0  0  0  0  0
    8.1280   -6.0230   23.9740 H   0  0  0  0  0  0  0  0  0  0  0  0
    6.8340   -5.4430   25.0470 H   0  0  0  0  0  0  0  0  0  0  0  0
    8.5400   -5.2910   25.5540 H   0  0  0  0  0  0  0  0  0  0  0  0
  1  2  1  0  0  0  0
  1 58  1  0  0  0  0
  1 59  1  0  0  0  0
  1 60  1  0  0  0  0
  2  3  1  0  0  0  0
  3  4  1  0  0  0  0
  3 56  1  0  0  0  0
  3 57  1  0  0  0  0
  4  5  1  0  0  0  0
  4 25  1  0  0  0  0
  4 55  1  6  0  0  0
  5  6  1  0  0  0  0
  5 53  1  0  0  0  0
  5 54  1  0  0  0  0
  6  7  1  0  0  0  0
  6 23  1  0  0  0  0
  7  8  2  0  0  0  0
  7 16  1  0  0  0  0
  8  9  1  0  0  0  0
  8 22  1  0  0  0  0
  9 10  2  0  0  0  0
 10 11  1  0  0  0  0
 10 21  1  0  0  0  0
 11 12  2  0  0  0  0
 11 16  1  0  0  0  0
 12 13  1  0  0  0  0
 12 20  1  0  0  0  0
 13 14  2  0  0  0  0
 13 19  1  0  0  0  0
 14 15  1  0  0  0  0
 14 18  1  0  0  0  0
 15 16  2  0  0  0  0
 15 17  1  0  0  0  0
 23 24  2  0  0  0  0
 25 23  1  6  0  0  0
 25 26  1  0  0  0  0
 25 47  1  0  0  0  0
 26 27  1  0  0  0  0
 26 51  1  0  0  0  0
 26 52  1  0  0  0  0
 27 28  1  0  0  0  0
 27 39  1  0  0  0  0
 28 29  1  0  0  0  0
 28 37  1  0  0  0  0
 28 38  1  0  0  0  0
 29 30  2  0  0  0  0
 29 33  1  0  0  0  0
 30 31  1  0  0  0  0
 31 32  2  0  0  0  0
 31 36  1  0  0  0  0
 32 33  1  0  0  0  0
 32 35  1  0  0  0  0
 33 34  1  0  0  0  0
 39 40  2  0  0  0  0
 39 41  1  0  0  0  0
 41 42  2  0  0  0  0
 41 47  1  0  0  0  0
 42 43  1  0  0  0  0
 42 50  1  0  0  0  0
 43 44  2  0  0  0  0
 43 49  1  0  0  0  0
 44 45  1  0  0  0  0
 44 46  1  0  0  0  0
 46 47  2  0  0  0  0
 46 48  1  0  0  0  0
M  END
>  <MODEL>
       2

$$$$
best_conformers_59.pdb
 OpenBabel02042510453D

 60 65  0  0  1  0  0  0  0  0999 V2000
    5.1820   -4.6800   24.5240 C   0  0  0  0  0  0  0  0  0  0  0  0
    5.5440   -3.5650   23.7460 O   0  0  0  0  0  0  0  0  0  0  0  0
    6.8800   -3.6590   23.2950 C   0  0  0  0  0  0  0  0  0  0  0  0
    7.2590   -2.4700   22.4130 C   0  0  1  0  0  0  0  0  0  0  0  0
    6.2860   -2.2130   21.2590 C   0  0  0  0  0  0  0  0  0  0  0  0
    6.4500   -0.7930   20.9790 N   0  0  0  0  0  0  0  0  0  0  0  0
    5.8470   -0.1530   19.8640 C   0  0  0  0  0  0  0  0  0  0  0  0
    6.2570   -0.4560   18.5900 C   0  0  0  0  0  0  0  0  0  0  0  0
    5.7690    0.1170   17.4610 N   0  0  0  0  0  0  0  0  0  0  0  0
    4.8060    0.9980   17.6060 C   0  0  0  0  0  0  0  0  0  0  0  0
    4.2390    1.3670   18.8600 C   0  0  0  0  0  0  0  0  0  0  0  0
    3.1770    2.3110   18.9540 C   0  0  0  0  0  0  0  0  0  0  0  0
    2.6300    2.6230   20.1680 C   0  0  0  0  0  0  0  0  0  0  0  0
    3.1140    1.9970   21.3400 C   0  0  0  0  0  0  0  0  0  0  0  0
    4.1410    1.0910   21.2720 C   0  0  0  0  0  0  0  0  0  0  0  0
    4.7550    0.7660   20.0290 C   0  0  0  0  0  0  0  0  0  0  0  0
    4.5020    0.6220   22.1810 H   0  0  0  0  0  0  0  0  0  0  0  0
    2.6760    2.2490   22.3020 H   0  0  0  0  0  0  0  0  0  0  0  0
    1.8250    3.3510   20.2390 H   0  0  0  0  0  0  0  0  0  0  0  0
    2.8170    2.7790   18.0400 H   0  0  0  0  0  0  0  0  0  0  0  0
    4.4190    1.4610   16.6990 H   0  0  0  0  0  0  0  0  0  0  0  0
    7.0420   -1.1930   18.4300 H   0  0  0  0  0  0  0  0  0  0  0  0
    7.1000   -0.0920   21.9750 C   0  0  0  0  0  0  0  0  0  0  0  0
    7.2900    1.1050   21.9620 O   0  0  0  0  0  0  0  0  0  0  0  0
    7.4760   -1.0740   23.1030 C   0  0  1  0  0  0  0  0  0  0  0  0
    6.5360   -0.7790   24.2980 C   0  0  0  0  0  0  0  0  0  0  0  0
    6.9300   -1.5000   25.4960 N   0  0  0  0  0  0  0  0  0  0  0  0
    5.9080   -1.7910   26.4880 C   0  0  0  0  0  0  0  0  0  0  0  0
    5.6020   -0.6190   27.3800 C   0  0  0  0  0  0  0  0  0  0  0  0
    4.8160    0.3880   27.0670 N   0  0  0  0  0  0  0  0  0  0  0  0
    4.8760    1.2500   28.1370 C   0  0  0  0  0  0  0  0  0  0  0  0
    5.6990    0.7480   29.1100 C   0  0  0  0  0  0  0  0  0  0  0  0
    6.1530   -0.4580   28.6140 N   0  0  0  0  0  0  0  0  0  0  0  0
    6.8320   -1.0830   29.0340 H   0  0  0  0  0  0  0  0  0  0  0  0
    5.9980    1.1290   30.0760 H   0  0  0  0  0  0  0  0  0  0  0  0
    4.3310    2.1880   28.1040 H   0  0  0  0  0  0  0  0  0  0  0  0
    5.0040   -2.0680   25.9410 H   0  0  0  0  0  0  0  0  0  0  0  0
    6.2490   -2.6410   27.0850 H   0  0  0  0  0  0  0  0  0  0  0  0
    8.2280   -1.5600   25.9040 C   0  0  0  0  0  0  0  0  0  0  0  0
    8.5130   -1.9730   27.0180 O   0  0  0  0  0  0  0  0  0  0  0  0
    9.2630   -1.1310   24.9110 C   0  0  0  0  0  0  0  0  0  0  0  0
   10.5960   -1.0360   25.3140 C   0  0  0  0  0  0  0  0  0  0  0  0
   11.5890   -0.7240   24.4000 C   0  0  0  0  0  0  0  0  0  0  0  0
   11.2360   -0.5180   23.0680 C   0  0  0  0  0  0  0  0  0  0  0  0
   12.4810   -0.1350   21.9180 Cl  0  0  0  0  0  0  0  0  0  0  0  0
    9.9210   -0.6150   22.6500 C   0  0  0  0  0  0  0  0  0  0  0  0
    8.9100   -0.8980   23.5770 C   0  0  0  0  0  0  0  0  0  0  0  0
    9.6780   -0.4510   21.6050 H   0  0  0  0  0  0  0  0  0  0  0  0
   12.6310   -0.6510   24.6930 H   0  0  0  0  0  0  0  0  0  0  0  0
   10.8360   -1.2420   26.3510 H   0  0  0  0  0  0  0  0  0  0  0  0
    6.5570    0.3080   24.4740 H   0  0  0  0  0  0  0  0  0  0  0  0
    5.5150   -1.0930   24.0540 H   0  0  0  0  0  0  0  0  0  0  0  0
    5.2530   -2.4500   21.5400 H   0  0  0  0  0  0  0  0  0  0  0  0
    6.5310   -2.7910   20.3690 H   0  0  0  0  0  0  0  0  0  0  0  0
    8.2420   -2.7210   21.9950 H   0  0  0  0  0  0  0  0  0  0  0  0
    7.5660   -3.7000   24.1520 H   0  0  0  0  0  0  0  0  0  0  0  0
    7.0050   -4.5970   22.7290 H   0  0  0  0  0  0  0  0  0  0  0  0
    4.1500   -4.5280   24.8510 H   0  0  0  0  0  0  0  0  0  0  0  0
    5.8300   -4.7940   25.4090 H   0  0  0  0  0  0  0  0  0  0  0  0
    5.2390   -5.6100   23.9390 H   0  0  0  0  0  0  0  0  0  0  0  0
  1  2  1  0  0  0  0
  1 58  1  0  0  0  0
  1 59  1  0  0  0  0
  1 60  1  0  0  0  0
  2  3  1  0  0  0  0
  3  4  1  0  0  0  0
  3 56  1  0  0  0  0
  3 57  1  0  0  0  0
  4  5  1  0  0  0  0
  4 25  1  0  0  0  0
  4 55  1  6  0  0  0
  5  6  1  0  0  0  0
  5 53  1  0  0  0  0
  5 54  1  0  0  0  0
  6  7  1  0  0  0  0
  6 23  1  0  0  0  0
  7  8  2  0  0  0  0
  7 16  1  0  0  0  0
  8  9  1  0  0  0  0
  8 22  1  0  0  0  0
  9 10  2  0  0  0  0
 10 11  1  0  0  0  0
 10 21  1  0  0  0  0
 11 12  2  0  0  0  0
 11 16  1  0  0  0  0
 12 13  1  0  0  0  0
 12 20  1  0  0  0  0
 13 14  2  0  0  0  0
 13 19  1  0  0  0  0
 14 15  1  0  0  0  0
 14 18  1  0  0  0  0
 15 16  2  0  0  0  0
 15 17  1  0  0  0  0
 23 24  2  0  0  0  0
 25 23  1  6  0  0  0
 25 26  1  0  0  0  0
 25 47  1  0  0  0  0
 26 27  1  0  0  0  0
 26 51  1  0  0  0  0
 26 52  1  0  0  0  0
 27 28  1  0  0  0  0
 27 39  1  0  0  0  0
 28 29  1  0  0  0  0
 28 37  1  0  0  0  0
 28 38  1  0  0  0  0
 29 30  2  0  0  0  0
 29 33  1  0  0  0  0
 30 31  1  0  0  0  0
 31 32  2  0  0  0  0
 31 36  1  0  0  0  0
 32 33  1  0  0  0  0
 32 35  1  0  0  0  0
 33 34  1  0  0  0  0
 39 40  2  0  0  0  0
 39 41  1  0  0  0  0
 41 42  2  0  0  0  0
 41 47  1  0  0  0  0
 42 43  1  0  0  0  0
 42 50  1  0  0  0  0
 43 44  2  0  0  0  0
 43 49  1  0  0  0  0
 44 45  1  0  0  0  0
 44 46  1  0  0  0  0
 46 47  2  0  0  0  0
 46 48  1  0  0  0  0
M  END
>  <MODEL>
       3

$$$$
best_conformers_59.pdb
 OpenBabel02042510453D

 60 65  0  0  1  0  0  0  0  0999 V2000
    6.3970   -5.8970   23.4070 C   0  0  0  0  0  0  0  0  0  0  0  0
    6.8160   -4.8260   22.5990 O   0  0  0  0  0  0  0  0  0  0  0  0
    6.8350   -3.6240   23.3330 C   0  0  0  0  0  0  0  0  0  0  0  0
    7.2810   -2.4780   22.4280 C   0  0  1  0  0  0  0  0  0  0  0  0
    6.3170   -2.2120   21.2630 C   0  0  0  0  0  0  0  0  0  0  0  0
    6.4650   -0.7930   20.9810 N   0  0  0  0  0  0  0  0  0  0  0  0
    5.8400   -0.1560   19.8650 C   0  0  0  0  0  0  0  0  0  0  0  0
    6.2400   -0.4530   18.5850 C   0  0  0  0  0  0  0  0  0  0  0  0
    5.7520    0.1270   17.4560 N   0  0  0  0  0  0  0  0  0  0  0  0
    4.7900    1.0110   17.5900 C   0  0  0  0  0  0  0  0  0  0  0  0
    4.2320    1.3740   18.8480 C   0  0  0  0  0  0  0  0  0  0  0  0
    3.1720    2.3190   18.9470 C   0  0  0  0  0  0  0  0  0  0  0  0
    2.6320    2.6260   20.1660 C   0  0  0  0  0  0  0  0  0  0  0  0
    3.1200    1.9990   21.3360 C   0  0  0  0  0  0  0  0  0  0  0  0
    4.1420    1.0900   21.2640 C   0  0  0  0  0  0  0  0  0  0  0  0
    4.7480    0.7690   20.0180 C   0  0  0  0  0  0  0  0  0  0  0  0
    4.5110    0.6100   22.1640 H   0  0  0  0  0  0  0  0  0  0  0  0
    2.6860    2.2440   22.3000 H   0  0  0  0  0  0  0  0  0  0  0  0
    1.8240    3.3490   20.2490 H   0  0  0  0  0  0  0  0  0  0  0  0
    2.7970    2.7910   18.0400 H   0  0  0  0  0  0  0  0  0  0  0  0
    4.4010    1.4850   16.6830 H   0  0  0  0  0  0  0  0  0  0  0  0
    7.0310   -1.1830   18.4150 H   0  0  0  0  0  0  0  0  0  0  0  0
    7.1080   -0.1070   21.9950 C   0  0  0  0  0  0  0  0  0  0  0  0
    7.2990    1.0900   22.0050 O   0  0  0  0  0  0  0  0  0  0  0  0
    7.4850   -1.0900   23.1130 C   0  0  1  0  0  0  0  0  0  0  0  0
    6.5270   -0.8060   24.2970 C   0  0  0  0  0  0  0  0  0  0  0  0
    6.9200   -1.5430   25.4820 N   0  0  0  0  0  0  0  0  0  0  0  0
    5.8890   -1.9920   26.4270 C   0  0  0  0  0  0  0  0  0  0  0  0
    5.3810   -0.8920   27.3120 C   0  0  0  0  0  0  0  0  0  0  0  0
    4.4640   -0.0170   26.9680 N   0  0  0  0  0  0  0  0  0  0  0  0
    4.3720    0.8440   28.0370 C   0  0  0  0  0  0  0  0  0  0  0  0
    5.2270    0.4790   29.0400 C   0  0  0  0  0  0  0  0  0  0  0  0
    5.8650   -0.6450   28.5590 N   0  0  0  0  0  0  0  0  0  0  0  0
    6.5930   -1.1760   29.0090 H   0  0  0  0  0  0  0  0  0  0  0  0
    5.4280    0.9060   30.0160 H   0  0  0  0  0  0  0  0  0  0  0  0
    3.7020    1.6890   28.0280 H   0  0  0  0  0  0  0  0  0  0  0  0
    5.0360   -2.3680   25.8510 H   0  0  0  0  0  0  0  0  0  0  0  0
    6.2830   -2.8140   27.0370 H   0  0  0  0  0  0  0  0  0  0  0  0
    8.2180   -1.4940   25.9100 C   0  0  0  0  0  0  0  0  0  0  0  0
    8.5150   -1.8450   27.0360 O   0  0  0  0  0  0  0  0  0  0  0  0
    9.2700   -1.0800   24.9190 C   0  0  0  0  0  0  0  0  0  0  0  0
   10.6090   -0.9760   25.3210 C   0  0  0  0  0  0  0  0  0  0  0  0
   11.6070   -0.6700   24.4110 C   0  0  0  0  0  0  0  0  0  0  0  0
   11.2500   -0.4960   23.0760 C   0  0  0  0  0  0  0  0  0  0  0  0
   12.4930   -0.1300   21.9140 Cl  0  0  0  0  0  0  0  0  0  0  0  0
    9.9350   -0.6180   22.6600 C   0  0  0  0  0  0  0  0  0  0  0  0
    8.9180   -0.8980   23.5810 C   0  0  0  0  0  0  0  0  0  0  0  0
    9.6990   -0.4860   21.6110 H   0  0  0  0  0  0  0  0  0  0  0  0
   12.6500   -0.5750   24.7100 H   0  0  0  0  0  0  0  0  0  0  0  0
   10.8810   -1.1400   26.3580 H   0  0  0  0  0  0  0  0  0  0  0  0
    6.5100    0.2730   24.4950 H   0  0  0  0  0  0  0  0  0  0  0  0
    5.5020   -1.0830   24.0480 H   0  0  0  0  0  0  0  0  0  0  0  0
    5.2830   -2.4770   21.5140 H   0  0  0  0  0  0  0  0  0  0  0  0
    6.5750   -2.7960   20.3890 H   0  0  0  0  0  0  0  0  0  0  0  0
    8.2550   -2.7690   22.0170 H   0  0  0  0  0  0  0  0  0  0  0  0
    5.8330   -3.4180   23.7440 H   0  0  0  0  0  0  0  0  0  0  0  0
    7.5150   -3.7120   24.1910 H   0  0  0  0  0  0  0  0  0  0  0  0
    7.0630   -6.0380   24.2740 H   0  0  0  0  0  0  0  0  0  0  0  0
    5.3770   -5.7400   23.7920 H   0  0  0  0  0  0  0  0  0  0  0  0
    6.4090   -6.8070   22.8040 H   0  0  0  0  0  0  0  0  0  0  0  0
  1  2  1  0  0  0  0
  1 58  1  0  0  0  0
  1 59  1  0  0  0  0
  1 60  1  0  0  0  0
  2  3  1  0  0  0  0
  3  4  1  0  0  0  0
  3 56  1  0  0  0  0
  3 57  1  0  0  0  0
  4  5  1  0  0  0  0
  4 25  1  0  0  0  0
  4 55  1  6  0  0  0
  5  6  1  0  0  0  0
  5 53  1  0  0  0  0
  5 54  1  0  0  0  0
  6  7  1  0  0  0  0
  6 23  1  0  0  0  0
  7  8  2  0  0  0  0
  7 16  1  0  0  0  0
  8  9  1  0  0  0  0
  8 22  1  0  0  0  0
  9 10  2  0  0  0  0
 10 11  1  0  0  0  0
 10 21  1  0  0  0  0
 11 12  2  0  0  0  0
 11 16  1  0  0  0  0
 12 13  1  0  0  0  0
 12 20  1  0  0  0  0
 13 14  2  0  0  0  0
 13 19  1  0  0  0  0
 14 15  1  0  0  0  0
 14 18  1  0  0  0  0
 15 16  2  0  0  0  0
 15 17  1  0  0  0  0
 23 24  2  0  0  0  0
 25 23  1  6  0  0  0
 25 26  1  0  0  0  0
 25 47  1  0  0  0  0
 26 27  1  0  0  0  0
 26 51  1  0  0  0  0
 26 52  1  0  0  0  0
 27 28  1  0  0  0  0
 27 39  1  0  0  0  0
 28 29  1  0  0  0  0
 28 37  1  0  0  0  0
 28 38  1  0  0  0  0
 29 30  2  0  0  0  0
 29 33  1  0  0  0  0
 30 31  1  0  0  0  0
 31 32  2  0  0  0  0
 31 36  1  0  0  0  0
 32 33  1  0  0  0  0
 32 35  1  0  0  0  0
 33 34  1  0  0  0  0
 39 40  2  0  0  0  0
 39 41  1  0  0  0  0
 41 42  2  0  0  0  0
 41 47  1  0  0  0  0
 42 43  1  0  0  0  0
 42 50  1  0  0  0  0
 43 44  2  0  0  0  0
 43 49  1  0  0  0  0
 44 45  1  0  0  0  0
 44 46  1  0  0  0  0
 46 47  2  0  0  0  0
 46 48  1  0  0  0  0
M  END
>  <MODEL>
       4

$$$$
