best_conformers_14.pdb
 OpenBabel02042510453D

 67 73  0  0  1  0  0  0  0  0999 V2000
    7.2790   -3.5510   23.2270 C   0  0  0  0  0  0  0  0  0  0  0  0
    7.5230   -2.3590   22.3110 C   0  0  1  0  0  0  0  0  0  0  0  0
    6.3870   -2.1340   21.3070 C   0  0  0  0  0  0  0  0  0  0  0  0
    6.4880   -0.7180   21.0150 N   0  0  0  0  0  0  0  0  0  0  0  0
    5.8630   -0.1230   19.8990 C   0  0  0  0  0  0  0  0  0  0  0  0
    6.2930   -0.4470   18.6390 C   0  0  0  0  0  0  0  0  0  0  0  0
    5.8130    0.0950   17.4940 N   0  0  0  0  0  0  0  0  0  0  0  0
    4.8410    0.9700   17.6230 C   0  0  0  0  0  0  0  0  0  0  0  0
    4.2710    1.3580   18.8690 C   0  0  0  0  0  0  0  0  0  0  0  0
    3.2140    2.3030   18.9400 C   0  0  0  0  0  0  0  0  0  0  0  0
    2.6510    2.6220   20.1430 C   0  0  0  0  0  0  0  0  0  0  0  0
    3.1090    2.0100   21.3310 C   0  0  0  0  0  0  0  0  0  0  0  0
    4.1370    1.1070   21.2920 C   0  0  0  0  0  0  0  0  0  0  0  0
    4.7660    0.7770   20.0570 C   0  0  0  0  0  0  0  0  0  0  0  0
    4.4810    0.6490   22.2130 H   0  0  0  0  0  0  0  0  0  0  0  0
    2.6400    2.2620   22.2780 H   0  0  0  0  0  0  0  0  0  0  0  0
    1.8400    3.3430   20.1910 H   0  0  0  0  0  0  0  0  0  0  0  0
    2.8660    2.7550   18.0130 H   0  0  0  0  0  0  0  0  0  0  0  0
    4.4420    1.4090   16.7070 H   0  0  0  0  0  0  0  0  0  0  0  0
    7.0990   -1.1700   18.5300 H   0  0  0  0  0  0  0  0  0  0  0  0
    7.1750    0.0080   21.9610 C   0  0  0  0  0  0  0  0  0  0  0  0
    7.2780    1.2210   21.9620 O   0  0  0  0  0  0  0  0  0  0  0  0
    7.7240   -0.9660   23.0180 C   0  0  1  0  0  0  0  0  0  0  0  0
    6.8330   -0.7650   24.2790 C   0  0  0  0  0  0  0  0  0  0  0  0
    7.3730   -1.3450   25.5070 N   0  0  0  0  0  0  0  0  0  0  0  0
    6.5300   -1.2050   26.6980 C   0  0  0  0  0  0  0  0  0  0  0  0
    6.3780   -2.5030   27.4800 C   0  0  0  0  0  0  0  0  0  0  0  0
    5.7430   -3.5660   26.6380 N   0  3  2  0  0  0  0  0  0  0  0  0
    4.2680   -3.3100   26.2850 C   0  0  0  0  0  0  0  0  0  0  0  0
    3.5460   -4.5440   26.8470 C   0  0  2  0  0  0  0  0  0  0  0  0
    4.3480   -4.8800   28.0960 C   0  0  0  0  0  0  0  0  0  0  0  0
    5.6500   -4.9430   27.2960 C   0  0  1  0  0  0  0  0  0  0  0  0
    5.2350   -5.9290   26.2010 C   0  0  0  0  0  0  0  0  0  0  0  0
    3.8380   -5.6540   25.9920 O   0  0  0  0  0  0  0  0  0  0  0  0
    5.7840   -5.7790   25.2590 H   0  0  0  0  0  0  0  0  0  0  0  0
    5.3480   -6.9730   26.5170 H   0  0  0  0  0  0  0  0  0  0  0  0
    6.5630   -5.1770   27.8380 H   0  0  0  0  0  0  0  0  0  0  0  0
    4.0580   -5.8550   28.4940 H   0  0  0  0  0  0  0  0  0  0  0  0
    4.3470   -4.1190   28.8810 H   0  0  0  0  0  0  0  0  0  0  0  0
    2.4710   -4.4170   26.9420 H   0  0  0  0  0  0  0  0  0  0  0  0
    3.9390   -2.3920   26.7670 H   0  0  0  0  0  0  0  0  0  0  0  0
    4.1570   -3.2230   25.2030 H   0  0  0  0  0  0  0  0  0  0  0  0
    6.3190   -3.6210   25.7790 H   0  0  0  0  0  0  0  0  0  0  0  0
    5.7700   -2.2980   28.3700 H   0  0  0  0  0  0  0  0  0  0  0  0
    7.3560   -2.8580   27.8130 H   0  0  0  0  0  0  0  0  0  0  0  0
    6.9350   -0.4320   27.3560 H   0  0  0  0  0  0  0  0  0  0  0  0
    5.5490   -0.8630   26.3600 H   0  0  0  0  0  0  0  0  0  0  0  0
    8.7240   -1.3220   25.7580 C   0  0  0  0  0  0  0  0  0  0  0  0
    9.1940   -1.6370   26.8400 O   0  0  0  0  0  0  0  0  0  0  0  0
    9.6290   -0.8740   24.6700 C   0  0  0  0  0  0  0  0  0  0  0  0
   10.9610   -0.6710   25.0250 C   0  0  0  0  0  0  0  0  0  0  0  0
   11.8830   -0.2710   24.0850 C   0  0  0  0  0  0  0  0  0  0  0  0
   11.4450   -0.0710   22.7780 C   0  0  0  0  0  0  0  0  0  0  0  0
   12.6150    0.4450   21.6050 Cl  0  0  0  0  0  0  0  0  0  0  0  0
   10.1240   -0.2800   22.4090 C   0  0  0  0  0  0  0  0  0  0  0  0
    9.1760   -0.6740   23.3680 C   0  0  0  0  0  0  0  0  0  0  0  0
    9.8400   -0.1250   21.3760 H   0  0  0  0  0  0  0  0  0  0  0  0
   12.9250   -0.1290   24.3500 H   0  0  0  0  0  0  0  0  0  0  0  0
   11.2360   -0.8470   26.0590 H   0  0  0  0  0  0  0  0  0  0  0  0
    5.8500   -1.2270   24.0980 H   0  0  0  0  0  0  0  0  0  0  0  0
    6.6700    0.3180   24.4060 H   0  0  0  0  0  0  0  0  0  0  0  0
    5.3990   -2.3800   21.7340 H   0  0  0  0  0  0  0  0  0  0  0  0
    6.5000   -2.7150   20.3880 H   0  0  0  0  0  0  0  0  0  0  0  0
    8.4450   -2.5340   21.7400 H   0  0  0  0  0  0  0  0  0  0  0  0
    7.3260   -4.4840   22.6570 H   0  0  0  0  0  0  0  0  0  0  0  0
    8.0240   -3.5850   24.0280 H   0  0  0  0  0  0  0  0  0  0  0  0
    6.2870   -3.4820   23.6920 H   0  0  0  0  0  0  0  0  0  0  0  0
  1  2  1  0  0  0  0
  1 65  1  0  0  0  0
  1 66  1  0  0  0  0
  1 67  1  0  0  0  0
  2  3  1  0  0  0  0
  2 23  1  0  0  0  0
  2 64  1  6  0  0  0
  3  4  1  0  0  0  0
  3 62  1  0  0  0  0
  3 63  1  0  0  0  0
  4  5  1  0  0  0  0
  4 21  1  0  0  0  0
  5  6  2  0  0  0  0
  5 14  1  0  0  0  0
  6  7  1  0  0  0  0
  6 20  1  0  0  0  0
  7  8  2  0  0  0  0
  8  9  1  0  0  0  0
  8 19  1  0  0  0  0
  9 10  2  0  0  0  0
  9 14  1  0  0  0  0
 10 11  1  0  0  0  0
 10 18  1  0  0  0  0
 11 12  2  0  0  0  0
 11 17  1  0  0  0  0
 12 13  1  0  0  0  0
 12 16  1  0  0  0  0
 13 14  2  0  0  0  0
 13 15  1  0  0  0  0
 21 22  2  0  0  0  0
 23 21  1  6  0  0  0
 23 24  1  0  0  0  0
 23 56  1  0  0  0  0
 24 25  1  0  0  0  0
 24 60  1  0  0  0  0
 24 61  1  0  0  0  0
 25 26  1  0  0  0  0
 25 48  1  0  0  0  0
 26 27  1  0  0  0  0
 26 46  1  0  0  0  0
 26 47  1  0  0  0  0
 27 28  1  0  0  0  0
 27 44  1  0  0  0  0
 27 45  1  0  0  0  0
 28 29  1  0  0  0  0
 28 32  1  0  0  0  0
 28 43  1  6  0  0  0
 29 30  1  0  0  0  0
 29 41  1  0  0  0  0
 29 42  1  0  0  0  0
 30 31  1  0  0  0  0
 30 34  1  0  0  0  0
 30 40  1  1  0  0  0
 31 32  1  0  0  0  0
 31 38  1  0  0  0  0
 31 39  1  0  0  0  0
 32 33  1  0  0  0  0
 32 37  1  1  0  0  0
 33 34  1  0  0  0  0
 33 35  1  0  0  0  0
 33 36  1  0  0  0  0
 48 49  2  0  0  0  0
 48 50  1  0  0  0  0
 50 51  2  0  0  0  0
 50 56  1  0  0  0  0
 51 52  1  0  0  0  0
 51 59  1  0  0  0  0
 52 53  2  0  0  0  0
 52 58  1  0  0  0  0
 53 54  1  0  0  0  0
 53 55  1  0  0  0  0
 55 56  2  0  0  0  0
 55 57  1  0  0  0  0
M  CHG  1  28   1
M  END
>  <MODEL>
       1

$$$$
best_conformers_14.pdb
 OpenBabel02042510453D

 67 73  0  0  1  0  0  0  0  0999 V2000
    6.8190   -3.6400   23.3260 C   0  0  0  0  0  0  0  0  0  0  0  0
    7.2570   -2.4750   22.4320 C   0  0  1  0  0  0  0  0  0  0  0  0
    6.2910   -2.2070   21.2680 C   0  0  0  0  0  0  0  0  0  0  0  0
    6.4620   -0.7910   20.9840 N   0  0  0  0  0  0  0  0  0  0  0  0
    5.8490   -0.1530   19.8680 C   0  0  0  0  0  0  0  0  0  0  0  0
    6.2540   -0.4550   18.5910 C   0  0  0  0  0  0  0  0  0  0  0  0
    5.7630    0.1200   17.4630 N   0  0  0  0  0  0  0  0  0  0  0  0
    4.8020    1.0010   17.6040 C   0  0  0  0  0  0  0  0  0  0  0  0
    4.2370    1.3680   18.8570 C   0  0  0  0  0  0  0  0  0  0  0  0
    3.1740    2.3110   18.9530 C   0  0  0  0  0  0  0  0  0  0  0  0
    2.6260    2.6200   20.1660 C   0  0  0  0  0  0  0  0  0  0  0  0
    3.1110    1.9940   21.3400 C   0  0  0  0  0  0  0  0  0  0  0  0
    4.1400    1.0880   21.2690 C   0  0  0  0  0  0  0  0  0  0  0  0
    4.7540    0.7650   20.0270 C   0  0  0  0  0  0  0  0  0  0  0  0
    4.5030    0.6160   22.1770 H   0  0  0  0  0  0  0  0  0  0  0  0
    2.6730    2.2430   22.3030 H   0  0  0  0  0  0  0  0  0  0  0  0
    1.8180    3.3460   20.2420 H   0  0  0  0  0  0  0  0  0  0  0  0
    2.8110    2.7800   18.0400 H   0  0  0  0  0  0  0  0  0  0  0  0
    4.4150    1.4660   16.6980 H   0  0  0  0  0  0  0  0  0  0  0  0
    7.0390   -1.1920   18.4250 H   0  0  0  0  0  0  0  0  0  0  0  0
    7.1050   -0.1020   21.9910 C   0  0  0  0  0  0  0  0  0  0  0  0
    7.2950    1.0990   21.9810 O   0  0  0  0  0  0  0  0  0  0  0  0
    7.4690   -1.0840   23.1230 C   0  0  1  0  0  0  0  0  0  0  0  0
    6.5050   -0.7810   24.2980 C   0  0  0  0  0  0  0  0  0  0  0  0
    6.8950   -1.3820   25.5610 N   0  0  0  0  0  0  0  0  0  0  0  0
    5.8750   -1.5710   26.5960 C   0  0  0  0  0  0  0  0  0  0  0  0
    5.4230   -3.0260   26.7950 C   0  0  0  0  0  0  0  0  0  0  0  0
    4.1330   -3.3400   26.1090 N   0  3  2  0  0  0  0  0  0  0  0  0
    2.8880   -2.8120   26.8540 C   0  0  0  0  0  0  0  0  0  0  0  0
    2.0510   -4.0880   27.0670 C   0  0  2  0  0  0  0  0  0  0  0  0
    3.1330   -5.1330   27.3630 C   0  0  0  0  0  0  0  0  0  0  0  0
    3.8400   -4.8390   26.0330 C   0  0  1  0  0  0  0  0  0  0  0  0
    2.6700   -5.0310   25.0760 C   0  0  0  0  0  0  0  0  0  0  0  0
    1.5400   -4.5000   25.7910 O   0  0  0  0  0  0  0  0  0  0  0  0
    2.4840   -6.0870   24.8430 H   0  0  0  0  0  0  0  0  0  0  0  0
    2.8220   -4.4940   24.1350 H   0  0  0  0  0  0  0  0  0  0  0  0
    4.7460   -5.3870   25.7870 H   0  0  0  0  0  0  0  0  0  0  0  0
    3.7370   -4.9350   28.2550 H   0  0  0  0  0  0  0  0  0  0  0  0
    2.7300   -6.1490   27.4080 H   0  0  0  0  0  0  0  0  0  0  0  0
    1.2130   -3.9860   27.7570 H   0  0  0  0  0  0  0  0  0  0  0  0
    3.2030   -2.3600   27.7980 H   0  0  0  0  0  0  0  0  0  0  0  0
    2.3740   -2.0750   26.2390 H   0  0  0  0  0  0  0  0  0  0  0  0
    4.1820   -2.9250   25.1650 H   0  0  0  0  0  0  0  0  0  0  0  0
    6.2120   -3.6960   26.4350 H   0  0  0  0  0  0  0  0  0  0  0  0
    5.2880   -3.2280   27.8630 H   0  0  0  0  0  0  0  0  0  0  0  0
    5.0050   -0.9610   26.3300 H   0  0  0  0  0  0  0  0  0  0  0  0
    6.2910   -1.1880   27.5330 H   0  0  0  0  0  0  0  0  0  0  0  0
    8.1930   -1.6100   25.9150 C   0  0  0  0  0  0  0  0  0  0  0  0
    8.4770   -2.1450   26.9740 O   0  0  0  0  0  0  0  0  0  0  0  0
    9.2410   -1.1950   24.9250 C   0  0  0  0  0  0  0  0  0  0  0  0
   10.5720   -1.1510   25.3350 C   0  0  0  0  0  0  0  0  0  0  0  0
   11.5750   -0.8150   24.4460 C   0  0  0  0  0  0  0  0  0  0  0  0
   11.2290   -0.5440   23.1240 C   0  0  0  0  0  0  0  0  0  0  0  0
   12.4850   -0.1300   21.9950 Cl  0  0  0  0  0  0  0  0  0  0  0  0
    9.9150   -0.6060   22.6940 C   0  0  0  0  0  0  0  0  0  0  0  0
    8.8970   -0.9180   23.6010 C   0  0  0  0  0  0  0  0  0  0  0  0
    9.6880   -0.3960   21.6550 H   0  0  0  0  0  0  0  0  0  0  0  0
   12.6170   -0.7680   24.7490 H   0  0  0  0  0  0  0  0  0  0  0  0
   10.8070   -1.4020   26.3620 H   0  0  0  0  0  0  0  0  0  0  0  0
    5.5000   -1.1530   24.0570 H   0  0  0  0  0  0  0  0  0  0  0  0
    6.4580    0.3120   24.3950 H   0  0  0  0  0  0  0  0  0  0  0  0
    6.5250   -2.7930   20.3800 H   0  0  0  0  0  0  0  0  0  0  0  0
    5.2510   -2.4480   21.5420 H   0  0  0  0  0  0  0  0  0  0  0  0
    8.2390   -2.7240   22.0050 H   0  0  0  0  0  0  0  0  0  0  0  0
    6.7960   -4.5770   22.7550 H   0  0  0  0  0  0  0  0  0  0  0  0
    7.5170   -3.7750   24.1590 H   0  0  0  0  0  0  0  0  0  0  0  0
    5.8200   -3.4810   23.7600 H   0  0  0  0  0  0  0  0  0  0  0  0
  1  2  1  0  0  0  0
  1 65  1  0  0  0  0
  1 66  1  0  0  0  0
  1 67  1  0  0  0  0
  2  3  1  0  0  0  0
  2 23  1  0  0  0  0
  2 64  1  6  0  0  0
  3  4  1  0  0  0  0
  3 62  1  0  0  0  0
  3 63  1  0  0  0  0
  4  5  1  0  0  0  0
  4 21  1  0  0  0  0
  5  6  2  0  0  0  0
  5 14  1  0  0  0  0
  6  7  1  0  0  0  0
  6 20  1  0  0  0  0
  7  8  2  0  0  0  0
  8  9  1  0  0  0  0
  8 19  1  0  0  0  0
  9 10  2  0  0  0  0
  9 14  1  0  0  0  0
 10 11  1  0  0  0  0
 10 18  1  0  0  0  0
 11 12  2  0  0  0  0
 11 17  1  0  0  0  0
 12 13  1  0  0  0  0
 12 16  1  0  0  0  0
 13 14  2  0  0  0  0
 13 15  1  0  0  0  0
 21 22  2  0  0  0  0
 23 21  1  6  0  0  0
 23 24  1  0  0  0  0
 23 56  1  0  0  0  0
 24 25  1  0  0  0  0
 24 60  1  0  0  0  0
 24 61  1  0  0  0  0
 25 26  1  0  0  0  0
 25 48  1  0  0  0  0
 26 27  1  0  0  0  0
 26 46  1  0  0  0  0
 26 47  1  0  0  0  0
 27 28  1  0  0  0  0
 27 44  1  0  0  0  0
 27 45  1  0  0  0  0
 28 29  1  0  0  0  0
 28 32  1  0  0  0  0
 28 43  1  6  0  0  0
 29 30  1  0  0  0  0
 29 41  1  0  0  0  0
 29 42  1  0  0  0  0
 30 31  1  0  0  0  0
 30 34  1  0  0  0  0
 30 40  1  1  0  0  0
 31 32  1  0  0  0  0
 31 38  1  0  0  0  0
 31 39  1  0  0  0  0
 32 33  1  0  0  0  0
 32 37  1  6  0  0  0
 33 34  1  0  0  0  0
 33 35  1  0  0  0  0
 33 36  1  0  0  0  0
 48 49  2  0  0  0  0
 48 50  1  0  0  0  0
 50 51  2  0  0  0  0
 50 56  1  0  0  0  0
 51 52  1  0  0  0  0
 51 59  1  0  0  0  0
 52 53  2  0  0  0  0
 52 58  1  0  0  0  0
 53 54  1  0  0  0  0
 53 55  1  0  0  0  0
 55 56  2  0  0  0  0
 55 57  1  0  0  0  0
M  CHG  1  28   1
M  END
>  <MODEL>
       2

$$$$
best_conformers_14.pdb
 OpenBabel02042510453D

 67 73  0  0  1  0  0  0  0  0999 V2000
    7.0360   -3.6230   23.2330 C   0  0  0  0  0  0  0  0  0  0  0  0
    7.3970   -2.4680   22.3060 C   0  0  1  0  0  0  0  0  0  0  0  0
    6.3020   -2.1830   21.2700 C   0  0  0  0  0  0  0  0  0  0  0  0
    6.4680   -0.7820   20.9820 N   0  0  0  0  0  0  0  0  0  0  0  0
    5.8500   -0.1540   19.8790 C   0  0  0  0  0  0  0  0  0  0  0  0
    6.2770   -0.4610   18.6120 C   0  0  0  0  0  0  0  0  0  0  0  0
    5.8010    0.1040   17.4770 N   0  0  0  0  0  0  0  0  0  0  0  0
    4.8290    0.9780   17.6160 C   0  0  0  0  0  0  0  0  0  0  0  0
    4.2650    1.3520   18.8700 C   0  0  0  0  0  0  0  0  0  0  0  0
    3.2050    2.2920   18.9500 C   0  0  0  0  0  0  0  0  0  0  0  0
    2.6470    2.6120   20.1570 C   0  0  0  0  0  0  0  0  0  0  0  0
    3.1200    2.0050   21.3420 C   0  0  0  0  0  0  0  0  0  0  0  0
    4.1520    1.1020   21.2960 C   0  0  0  0  0  0  0  0  0  0  0  0
    4.7680    0.7660   20.0520 C   0  0  0  0  0  0  0  0  0  0  0  0
    4.5040    0.6530   22.2200 H   0  0  0  0  0  0  0  0  0  0  0  0
    2.6660    2.2620   22.2960 H   0  0  0  0  0  0  0  0  0  0  0  0
    1.8410    3.3380   20.2150 H   0  0  0  0  0  0  0  0  0  0  0  0
    2.8510    2.7490   18.0310 H   0  0  0  0  0  0  0  0  0  0  0  0
    4.4260    1.4310   16.7090 H   0  0  0  0  0  0  0  0  0  0  0  0
    7.0780   -1.1900   18.4780 H   0  0  0  0  0  0  0  0  0  0  0  0
    7.1960   -0.0960   21.9220 C   0  0  0  0  0  0  0  0  0  0  0  0
    7.3660    1.1060   21.8920 O   0  0  0  0  0  0  0  0  0  0  0  0
    7.6880   -1.0860   22.9930 C   0  0  1  0  0  0  0  0  0  0  0  0
    6.8710   -0.8010   24.2820 C   0  0  0  0  0  0  0  0  0  0  0  0
    7.3670   -1.4970   25.4580 N   0  0  0  0  0  0  0  0  0  0  0  0
    6.4600   -2.0030   26.4740 C   0  0  0  0  0  0  0  0  0  0  0  0
    6.2210   -1.0010   27.6060 C   0  0  0  0  0  0  0  0  0  0  0  0
    5.2780   -1.5340   28.6300 N   0  3  2  0  0  0  0  0  0  0  0  0
    4.7030   -0.4770   29.5740 C   0  0  0  0  0  0  0  0  0  0  0  0
    4.9720   -1.0690   30.9700 C   0  0  2  0  0  0  0  0  0  0  0  0
    6.3240   -1.7520   30.7970 C   0  0  0  0  0  0  0  0  0  0  0  0
    5.8160   -2.5900   29.6230 C   0  0  1  0  0  0  0  0  0  0  0  0
    4.5740   -3.2010   30.2840 C   0  0  0  0  0  0  0  0  0  0  0  0
    4.0810   -2.1690   31.1520 O   0  0  0  0  0  0  0  0  0  0  0  0
    3.8050   -3.4790   29.5560 H   0  0  0  0  0  0  0  0  0  0  0  0
    4.7880   -4.0810   30.8900 H   0  0  0  0  0  0  0  0  0  0  0  0
    6.4970   -3.2890   29.1400 H   0  0  0  0  0  0  0  0  0  0  0  0
    6.6040   -2.3690   31.6520 H   0  0  0  0  0  0  0  0  0  0  0  0
    7.1380   -1.0630   30.6080 H   0  0  0  0  0  0  0  0  0  0  0  0
    4.8360   -0.3880   31.8090 H   0  0  0  0  0  0  0  0  0  0  0  0
    3.6330   -0.3730   29.4000 H   0  0  0  0  0  0  0  0  0  0  0  0
    5.2220    0.4710   29.4080 H   0  0  0  0  0  0  0  0  0  0  0  0
    4.5150   -1.9660   28.0800 H   0  0  0  0  0  0  0  0  0  0  0  0
    5.8090   -0.0810   27.1800 H   0  0  0  0  0  0  0  0  0  0  0  0
    7.1720   -0.7290   28.0660 H   0  0  0  0  0  0  0  0  0  0  0  0
    6.9030   -2.9160   26.8770 H   0  0  0  0  0  0  0  0  0  0  0  0
    5.5170   -2.2670   25.9800 H   0  0  0  0  0  0  0  0  0  0  0  0
    8.6970   -1.5620   25.7340 C   0  0  0  0  0  0  0  0  0  0  0  0
    9.1330   -1.9750   26.7980 O   0  0  0  0  0  0  0  0  0  0  0  0
    9.6060   -1.1300   24.6380 C   0  0  0  0  0  0  0  0  0  0  0  0
   10.9480   -1.0420   24.9790 C   0  0  0  0  0  0  0  0  0  0  0  0
   11.8870   -0.7100   24.0280 C   0  0  0  0  0  0  0  0  0  0  0  0
   11.4470   -0.4870   22.7220 C   0  0  0  0  0  0  0  0  0  0  0  0
   12.6690   -0.1120   21.5450 Cl  0  0  0  0  0  0  0  0  0  0  0  0
   10.1080   -0.5760   22.3590 C   0  0  0  0  0  0  0  0  0  0  0  0
    9.1550   -0.8980   23.3350 C   0  0  0  0  0  0  0  0  0  0  0  0
    9.8050   -0.4020   21.3280 H   0  0  0  0  0  0  0  0  0  0  0  0
   12.9410   -0.6410   24.2830 H   0  0  0  0  0  0  0  0  0  0  0  0
   11.1930   -1.2510   26.0130 H   0  0  0  0  0  0  0  0  0  0  0  0
    5.8250   -1.0810   24.1230 H   0  0  0  0  0  0  0  0  0  0  0  0
    6.9080    0.2850   24.4420 H   0  0  0  0  0  0  0  0  0  0  0  0
    5.2960   -2.3760   21.6700 H   0  0  0  0  0  0  0  0  0  0  0  0
    6.3950   -2.7630   20.3500 H   0  0  0  0  0  0  0  0  0  0  0  0
    8.3150   -2.7240   21.7580 H   0  0  0  0  0  0  0  0  0  0  0  0
    6.0890   -3.4320   23.7520 H   0  0  0  0  0  0  0  0  0  0  0  0
    7.8080   -3.7820   23.9900 H   0  0  0  0  0  0  0  0  0  0  0  0
    6.9100   -4.5520   22.6710 H   0  0  0  0  0  0  0  0  0  0  0  0
  1  2  1  0  0  0  0
  1 65  1  0  0  0  0
  1 66  1  0  0  0  0
  1 67  1  0  0  0  0
  2  3  1  0  0  0  0
  2 23  1  0  0  0  0
  2 64  1  6  0  0  0
  3  4  1  0  0  0  0
  3 62  1  0  0  0  0
  3 63  1  0  0  0  0
  4  5  1  0  0  0  0
  4 21  1  0  0  0  0
  5  6  2  0  0  0  0
  5 14  1  0  0  0  0
  6  7  1  0  0  0  0
  6 20  1  0  0  0  0
  7  8  2  0  0  0  0
  8  9  1  0  0  0  0
  8 19  1  0  0  0  0
  9 10  2  0  0  0  0
  9 14  1  0  0  0  0
 10 11  1  0  0  0  0
 10 18  1  0  0  0  0
 11 12  2  0  0  0  0
 11 17  1  0  0  0  0
 12 13  1  0  0  0  0
 12 16  1  0  0  0  0
 13 14  2  0  0  0  0
 13 15  1  0  0  0  0
 21 22  2  0  0  0  0
 23 21  1  6  0  0  0
 23 24  1  0  0  0  0
 23 56  1  0  0  0  0
 24 25  1  0  0  0  0
 24 60  1  0  0  0  0
 24 61  1  0  0  0  0
 25 26  1  0  0  0  0
 25 48  1  0  0  0  0
 26 27  1  0  0  0  0
 26 46  1  0  0  0  0
 26 47  1  0  0  0  0
 27 28  1  0  0  0  0
 27 44  1  0  0  0  0
 27 45  1  0  0  0  0
 28 29  1  0  0  0  0
 28 32  1  0  0  0  0
 28 43  1  6  0  0  0
 29 30  1  0  0  0  0
 29 41  1  0  0  0  0
 29 42  1  0  0  0  0
 30 31  1  0  0  0  0
 30 34  1  0  0  0  0
 30 40  1  1  0  0  0
 31 32  1  0  0  0  0
 31 38  1  0  0  0  0
 31 39  1  0  0  0  0
 32 33  1  0  0  0  0
 32 37  1  6  0  0  0
 33 34  1  0  0  0  0
 33 35  1  0  0  0  0
 33 36  1  0  0  0  0
 48 49  2  0  0  0  0
 48 50  1  0  0  0  0
 50 51  2  0  0  0  0
 50 56  1  0  0  0  0
 51 52  1  0  0  0  0
 51 59  1  0  0  0  0
 52 53  2  0  0  0  0
 52 58  1  0  0  0  0
 53 54  1  0  0  0  0
 53 55  1  0  0  0  0
 55 56  2  0  0  0  0
 55 57  1  0  0  0  0
M  CHG  1  28   1
M  END
>  <MODEL>
       3

$$$$
best_conformers_14.pdb
 OpenBabel02042510453D

 67 73  0  0  1  0  0  0  0  0999 V2000
    6.6430   -3.5840   23.3960 C   0  0  0  0  0  0  0  0  0  0  0  0
    7.1620   -2.4540   22.4960 C   0  0  1  0  0  0  0  0  0  0  0  0
    6.2550   -2.1970   21.2810 C   0  0  0  0  0  0  0  0  0  0  0  0
    6.4570   -0.7900   20.9770 N   0  0  0  0  0  0  0  0  0  0  0  0
    5.8490   -0.1510   19.8640 C   0  0  0  0  0  0  0  0  0  0  0  0
    6.2590   -0.4570   18.5920 C   0  0  0  0  0  0  0  0  0  0  0  0
    5.7680    0.1150   17.4650 N   0  0  0  0  0  0  0  0  0  0  0  0
    4.8060    0.9970   17.6100 C   0  0  0  0  0  0  0  0  0  0  0  0
    4.2410    1.3670   18.8600 C   0  0  0  0  0  0  0  0  0  0  0  0
    3.1800    2.3110   18.9530 C   0  0  0  0  0  0  0  0  0  0  0  0
    2.6300    2.6240   20.1660 C   0  0  0  0  0  0  0  0  0  0  0  0
    3.1130    1.9970   21.3390 C   0  0  0  0  0  0  0  0  0  0  0  0
    4.1420    1.0900   21.2760 C   0  0  0  0  0  0  0  0  0  0  0  0
    4.7570    0.7670   20.0320 C   0  0  0  0  0  0  0  0  0  0  0  0
    4.4990    0.6200   22.1880 H   0  0  0  0  0  0  0  0  0  0  0  0
    2.6670    2.2520   22.2960 H   0  0  0  0  0  0  0  0  0  0  0  0
    1.8260    3.3530   20.2380 H   0  0  0  0  0  0  0  0  0  0  0  0
    2.8190    2.7790   18.0380 H   0  0  0  0  0  0  0  0  0  0  0  0
    4.4200    1.4590   16.7020 H   0  0  0  0  0  0  0  0  0  0  0  0
    7.0420   -1.1960   18.4320 H   0  0  0  0  0  0  0  0  0  0  0  0
    7.0760   -0.0840   21.9890 C   0  0  0  0  0  0  0  0  0  0  0  0
    7.2940    1.1110   21.9550 O   0  0  0  0  0  0  0  0  0  0  0  0
    7.3590   -1.0430   23.1560 C   0  0  1  0  0  0  0  0  0  0  0  0
    6.3240   -0.7070   24.2600 C   0  0  0  0  0  0  0  0  0  0  0  0
    6.6250   -1.3580   25.5190 N   0  0  0  0  0  0  0  0  0  0  0  0
    5.5660   -1.9260   26.3430 C   0  0  0  0  0  0  0  0  0  0  0  0
    5.1410   -1.0790   27.5460 C   0  0  0  0  0  0  0  0  0  0  0  0
    4.8330    0.3300   27.1680 N   0  3  2  0  0  0  0  0  0  0  0  0
    4.5080    1.2250   28.3640 C   0  0  0  0  0  0  0  0  0  0  0  0
    3.1410    1.8290   27.9850 C   0  0  2  0  0  0  0  0  0  0  0  0
    2.4480    0.6470   27.2990 C   0  0  0  0  0  0  0  0  0  0  0  0
    3.5820    0.5250   26.2790 C   0  0  1  0  0  0  0  0  0  0  0  0
    3.6250    1.9580   25.7590 C   0  0  0  0  0  0  0  0  0  0  0  0
    3.3370    2.7590   26.9150 O   0  0  0  0  0  0  0  0  0  0  0  0
    4.6040    2.2290   25.3420 H   0  0  0  0  0  0  0  0  0  0  0  0
    2.8560    2.1450   24.9970 H   0  0  0  0  0  0  0  0  0  0  0  0
    3.5220   -0.2450   25.5150 H   0  0  0  0  0  0  0  0  0  0  0  0
    2.3020   -0.2380   27.9290 H   0  0  0  0  0  0  0  0  0  0  0  0
    1.4950    0.9290   26.8420 H   0  0  0  0  0  0  0  0  0  0  0  0
    2.6250    2.3520   28.7920 H   0  0  0  0  0  0  0  0  0  0  0  0
    5.2860    1.9770   28.4880 H   0  0  0  0  0  0  0  0  0  0  0  0
    4.4500    0.6070   29.2650 H   0  0  0  0  0  0  0  0  0  0  0  0
    5.7030    0.6370   26.6970 H   0  0  0  0  0  0  0  0  0  0  0  0
    4.2590   -1.5440   27.9980 H   0  0  0  0  0  0  0  0  0  0  0  0
    5.9380   -1.0840   28.2960 H   0  0  0  0  0  0  0  0  0  0  0  0
    4.7010   -2.0860   25.6920 H   0  0  0  0  0  0  0  0  0  0  0  0
    5.9020   -2.8910   26.7340 H   0  0  0  0  0  0  0  0  0  0  0  0
    7.8950   -1.4390   26.0120 C   0  0  0  0  0  0  0  0  0  0  0  0
    8.0850   -1.8580   27.1430 O   0  0  0  0  0  0  0  0  0  0  0  0
    9.0060   -1.0480   25.0870 C   0  0  0  0  0  0  0  0  0  0  0  0
   10.3080   -0.9520   25.5780 C   0  0  0  0  0  0  0  0  0  0  0  0
   11.3700   -0.6930   24.7290 C   0  0  0  0  0  0  0  0  0  0  0  0
   11.1180   -0.5490   23.3660 C   0  0  0  0  0  0  0  0  0  0  0  0
   12.4460   -0.2360   22.2850 Cl  0  0  0  0  0  0  0  0  0  0  0  0
    9.8350   -0.6510   22.8570 C   0  0  0  0  0  0  0  0  0  0  0  0
    8.7550   -0.8730   23.7200 C   0  0  0  0  0  0  0  0  0  0  0  0
    9.6760   -0.5380   21.7890 H   0  0  0  0  0  0  0  0  0  0  0  0
   12.3900   -0.6160   25.0930 H   0  0  0  0  0  0  0  0  0  0  0  0
   10.4720   -1.1110   26.6370 H   0  0  0  0  0  0  0  0  0  0  0  0
    6.3390    0.3880   24.3890 H   0  0  0  0  0  0  0  0  0  0  0  0
    5.3140   -1.0160   23.9450 H   0  0  0  0  0  0  0  0  0  0  0  0
    6.5250   -2.8080   20.4190 H   0  0  0  0  0  0  0  0  0  0  0  0
    5.1990   -2.4120   21.5140 H   0  0  0  0  0  0  0  0  0  0  0  0
    8.1600   -2.7390   22.1300 H   0  0  0  0  0  0  0  0  0  0  0  0
    6.6120   -4.5370   22.8530 H   0  0  0  0  0  0  0  0  0  0  0  0
    7.2790   -3.7150   24.2790 H   0  0  0  0  0  0  0  0  0  0  0  0
    5.6260   -3.3740   23.7540 H   0  0  0  0  0  0  0  0  0  0  0  0
  1  2  1  0  0  0  0
  1 65  1  0  0  0  0
  1 66  1  0  0  0  0
  1 67  1  0  0  0  0
  2  3  1  0  0  0  0
  2 23  1  0  0  0  0
  2 64  1  6  0  0  0
  3  4  1  0  0  0  0
  3 62  1  0  0  0  0
  3 63  1  0  0  0  0
  4  5  1  0  0  0  0
  4 21  1  0  0  0  0
  5  6  2  0  0  0  0
  5 14  1  0  0  0  0
  6  7  1  0  0  0  0
  6 20  1  0  0  0  0
  7  8  2  0  0  0  0
  8  9  1  0  0  0  0
  8 19  1  0  0  0  0
  9 10  2  0  0  0  0
  9 14  1  0  0  0  0
 10 11  1  0  0  0  0
 10 18  1  0  0  0  0
 11 12  2  0  0  0  0
 11 17  1  0  0  0  0
 12 13  1  0  0  0  0
 12 16  1  0  0  0  0
 13 14  2  0  0  0  0
 13 15  1  0  0  0  0
 21 22  2  0  0  0  0
 23 21  1  6  0  0  0
 23 24  1  0  0  0  0
 23 56  1  0  0  0  0
 24 25  1  0  0  0  0
 24 60  1  0  0  0  0
 24 61  1  0  0  0  0
 25 26  1  0  0  0  0
 25 48  1  0  0  0  0
 26 27  1  0  0  0  0
 26 46  1  0  0  0  0
 26 47  1  0  0  0  0
 27 28  1  0  0  0  0
 27 44  1  0  0  0  0
 27 45  1  0  0  0  0
 28 29  1  0  0  0  0
 28 32  1  0  0  0  0
 28 43  1  6  0  0  0
 29 30  1  0  0  0  0
 29 41  1  0  0  0  0
 29 42  1  0  0  0  0
 30 31  1  0  0  0  0
 30 34  1  0  0  0  0
 30 40  1  1  0  0  0
 31 32  1  0  0  0  0
 31 38  1  0  0  0  0
 31 39  1  0  0  0  0
 32 33  1  0  0  0  0
 32 37  1  6  0  0  0
 33 34  1  0  0  0  0
 33 35  1  0  0  0  0
 33 36  1  0  0  0  0
 48 49  2  0  0  0  0
 48 50  1  0  0  0  0
 50 51  2  0  0  0  0
 50 56  1  0  0  0  0
 51 52  1  0  0  0  0
 51 59  1  0  0  0  0
 52 53  2  0  0  0  0
 52 58  1  0  0  0  0
 53 54  1  0  0  0  0
 53 55  1  0  0  0  0
 55 56  2  0  0  0  0
 55 57  1  0  0  0  0
M  CHG  1  28   1
M  END
>  <MODEL>
       4

$$$$
best_conformers_14.pdb
 OpenBabel02042510453D

 67 73  0  0  1  0  0  0  0  0999 V2000
    6.9950   -3.6020   23.2890 C   0  0  0  0  0  0  0  0  0  0  0  0
    7.3940   -2.4350   22.3800 C   0  0  1  0  0  0  0  0  0  0  0  0
    6.3830   -2.1870   21.2460 C   0  0  0  0  0  0  0  0  0  0  0  0
    6.4700   -0.7610   20.9880 N   0  0  0  0  0  0  0  0  0  0  0  0
    5.8540   -0.1430   19.8690 C   0  0  0  0  0  0  0  0  0  0  0  0
    6.2610   -0.4540   18.5940 C   0  0  0  0  0  0  0  0  0  0  0  0
    5.7690    0.1140   17.4650 N   0  0  0  0  0  0  0  0  0  0  0  0
    4.8070    0.9960   17.6090 C   0  0  0  0  0  0  0  0  0  0  0  0
    4.2440    1.3680   18.8610 C   0  0  0  0  0  0  0  0  0  0  0  0
    3.1840    2.3150   18.9550 C   0  0  0  0  0  0  0  0  0  0  0  0
    2.6390    2.6310   20.1680 C   0  0  0  0  0  0  0  0  0  0  0  0
    3.1200    2.0070   21.3400 C   0  0  0  0  0  0  0  0  0  0  0  0
    4.1440    1.0970   21.2740 C   0  0  0  0  0  0  0  0  0  0  0  0
    4.7600    0.7710   20.0330 C   0  0  0  0  0  0  0  0  0  0  0  0
    4.5010    0.6270   22.1830 H   0  0  0  0  0  0  0  0  0  0  0  0
    2.6860    2.2630   22.3040 H   0  0  0  0  0  0  0  0  0  0  0  0
    1.8380    3.3650   20.2390 H   0  0  0  0  0  0  0  0  0  0  0  0
    2.8260    2.7820   18.0400 H   0  0  0  0  0  0  0  0  0  0  0  0
    4.4180    1.4580   16.7010 H   0  0  0  0  0  0  0  0  0  0  0  0
    7.0470   -1.1910   18.4290 H   0  0  0  0  0  0  0  0  0  0  0  0
    7.1240   -0.0530   21.9710 C   0  0  0  0  0  0  0  0  0  0  0  0
    7.2630    1.1550   21.9670 O   0  0  0  0  0  0  0  0  0  0  0  0
    7.5950   -1.0340   23.0640 C   0  0  1  0  0  0  0  0  0  0  0  0
    6.7020   -0.7800   24.3080 C   0  0  0  0  0  0  0  0  0  0  0  0
    7.2010   -1.3970   25.5320 N   0  0  0  0  0  0  0  0  0  0  0  0
    6.2620   -1.7610   26.5940 C   0  0  0  0  0  0  0  0  0  0  0  0
    6.2070   -3.2700   26.8620 C   0  0  0  0  0  0  0  0  0  0  0  0
    5.3390   -3.6050   28.0430 N   0  3  2  0  0  0  0  0  0  0  0  0
    5.5220   -5.0400   28.5380 C   0  0  0  0  0  0  0  0  0  0  0  0
    4.1000   -5.6200   28.5030 C   0  0  2  0  0  0  0  0  0  0  0  0
    3.5230   -4.9710   27.2420 C   0  0  0  0  0  0  0  0  0  0  0  0
    3.8150   -3.5660   27.7810 C   0  0  1  0  0  0  0  0  0  0  0  0
    3.1250   -3.6610   29.1410 C   0  0  0  0  0  0  0  0  0  0  0  0
    3.3410   -5.0180   29.5560 O   0  0  0  0  0  0  0  0  0  0  0  0
    3.5550   -2.9700   29.8760 H   0  0  0  0  0  0  0  0  0  0  0  0
    2.0450   -3.4820   29.0730 H   0  0  0  0  0  0  0  0  0  0  0  0
    3.5530   -2.7030   27.1790 H   0  0  0  0  0  0  0  0  0  0  0  0
    2.4540   -5.1660   27.1270 H   0  0  0  0  0  0  0  0  0  0  0  0
    4.0410   -5.2190   26.3090 H   0  0  0  0  0  0  0  0  0  0  0  0
    4.0380   -6.7010   28.6210 H   0  0  0  0  0  0  0  0  0  0  0  0
    6.1770   -5.5390   27.8300 H   0  0  0  0  0  0  0  0  0  0  0  0
    5.9720   -5.0520   29.5310 H   0  0  0  0  0  0  0  0  0  0  0  0
    5.6040   -2.9450   28.7980 H   0  0  0  0  0  0  0  0  0  0  0  0
    5.8210   -3.7930   25.9760 H   0  0  0  0  0  0  0  0  0  0  0  0
    7.2200   -3.6370   27.0560 H   0  0  0  0  0  0  0  0  0  0  0  0
    6.5530   -1.2490   27.5190 H   0  0  0  0  0  0  0  0  0  0  0  0
    5.2760   -1.3970   26.2880 H   0  0  0  0  0  0  0  0  0  0  0  0
    8.5320   -1.4180   25.8290 C   0  0  0  0  0  0  0  0  0  0  0  0
    8.9590   -1.8030   26.9060 O   0  0  0  0  0  0  0  0  0  0  0  0
    9.4770   -0.9870   24.7560 C   0  0  0  0  0  0  0  0  0  0  0  0
   10.8230   -0.8670   25.0950 C   0  0  0  0  0  0  0  0  0  0  0  0
   11.7520   -0.5430   24.1290 C   0  0  0  0  0  0  0  0  0  0  0  0
   11.3280   -0.3600   22.8160 C   0  0  0  0  0  0  0  0  0  0  0  0
   12.5510    0.0460   21.6520 Cl  0  0  0  0  0  0  0  0  0  0  0  0
    9.9960   -0.4960   22.4580 C   0  0  0  0  0  0  0  0  0  0  0  0
    9.0440   -0.7950   23.4430 C   0  0  0  0  0  0  0  0  0  0  0  0
    9.6880   -0.3570   21.4270 H   0  0  0  0  0  0  0  0  0  0  0  0
   12.8060   -0.4380   24.3560 H   0  0  0  0  0  0  0  0  0  0  0  0
   11.1150   -1.0550   26.1230 H   0  0  0  0  0  0  0  0  0  0  0  0
    5.7020   -1.1890   24.1210 H   0  0  0  0  0  0  0  0  0  0  0  0
    6.6300    0.3150   24.4110 H   0  0  0  0  0  0  0  0  0  0  0  0
    6.6190   -2.7310   20.3340 H   0  0  0  0  0  0  0  0  0  0  0  0
    5.3640   -2.4790   21.5430 H   0  0  0  0  0  0  0  0  0  0  0  0
    8.3690   -2.6670   21.9280 H   0  0  0  0  0  0  0  0  0  0  0  0
    7.6850   -3.7100   24.1330 H   0  0  0  0  0  0  0  0  0  0  0  0
    5.9890   -3.4580   23.7020 H   0  0  0  0  0  0  0  0  0  0  0  0
    6.9940   -4.5460   22.7320 H   0  0  0  0  0  0  0  0  0  0  0  0
  1  2  1  0  0  0  0
  1 65  1  0  0  0  0
  1 66  1  0  0  0  0
  1 67  1  0  0  0  0
  2  3  1  0  0  0  0
  2 23  1  0  0  0  0
  2 64  1  6  0  0  0
  3  4  1  0  0  0  0
  3 62  1  0  0  0  0
  3 63  1  0  0  0  0
  4  5  1  0  0  0  0
  4 21  1  0  0  0  0
  5  6  2  0  0  0  0
  5 14  1  0  0  0  0
  6  7  1  0  0  0  0
  6 20  1  0  0  0  0
  7  8  2  0  0  0  0
  8  9  1  0  0  0  0
  8 19  1  0  0  0  0
  9 10  2  0  0  0  0
  9 14  1  0  0  0  0
 10 11  1  0  0  0  0
 10 18  1  0  0  0  0
 11 12  2  0  0  0  0
 11 17  1  0  0  0  0
 12 13  1  0  0  0  0
 12 16  1  0  0  0  0
 13 14  2  0  0  0  0
 13 15  1  0  0  0  0
 21 22  2  0  0  0  0
 23 21  1  6  0  0  0
 23 24  1  0  0  0  0
 23 56  1  0  0  0  0
 24 25  1  0  0  0  0
 24 60  1  0  0  0  0
 24 61  1  0  0  0  0
 25 26  1  0  0  0  0
 25 48  1  0  0  0  0
 26 27  1  0  0  0  0
 26 46  1  0  0  0  0
 26 47  1  0  0  0  0
 27 28  1  0  0  0  0
 27 44  1  0  0  0  0
 27 45  1  0  0  0  0
 28 29  1  0  0  0  0
 28 32  1  0  0  0  0
 28 43  1  1  0  0  0
 29 30  1  0  0  0  0
 29 41  1  0  0  0  0
 29 42  1  0  0  0  0
 30 31  1  0  0  0  0
 30 34  1  0  0  0  0
 30 40  1  6  0  0  0
 31 32  1  0  0  0  0
 31 38  1  0  0  0  0
 31 39  1  0  0  0  0
 32 33  1  0  0  0  0
 32 37  1  6  0  0  0
 33 34  1  0  0  0  0
 33 35  1  0  0  0  0
 33 36  1  0  0  0  0
 48 49  2  0  0  0  0
 48 50  1  0  0  0  0
 50 51  2  0  0  0  0
 50 56  1  0  0  0  0
 51 52  1  0  0  0  0
 51 59  1  0  0  0  0
 52 53  2  0  0  0  0
 52 58  1  0  0  0  0
 53 54  1  0  0  0  0
 53 55  1  0  0  0  0
 55 56  2  0  0  0  0
 55 57  1  0  0  0  0
M  CHG  1  28   1
M  END
>  <MODEL>
       5

$$$$
best_conformers_14.pdb
 OpenBabel02042510453D

 67 73  0  0  1  0  0  0  0  0999 V2000
    6.8180   -3.6370   23.3100 C   0  0  0  0  0  0  0  0  0  0  0  0
    7.2710   -2.4770   22.4130 C   0  0  1  0  0  0  0  0  0  0  0  0
    6.2980   -2.2060   21.2540 C   0  0  0  0  0  0  0  0  0  0  0  0
    6.4570   -0.7880   20.9780 N   0  0  0  0  0  0  0  0  0  0  0  0
    5.8490   -0.1510   19.8650 C   0  0  0  0  0  0  0  0  0  0  0  0
    6.2590   -0.4560   18.5920 C   0  0  0  0  0  0  0  0  0  0  0  0
    5.7690    0.1160   17.4650 N   0  0  0  0  0  0  0  0  0  0  0  0
    4.8060    0.9970   17.6100 C   0  0  0  0  0  0  0  0  0  0  0  0
    4.2390    1.3660   18.8600 C   0  0  0  0  0  0  0  0  0  0  0  0
    3.1790    2.3090   18.9540 C   0  0  0  0  0  0  0  0  0  0  0  0
    2.6280    2.6230   20.1670 C   0  0  0  0  0  0  0  0  0  0  0  0
    3.1110    1.9970   21.3410 C   0  0  0  0  0  0  0  0  0  0  0  0
    4.1390    1.0900   21.2720 C   0  0  0  0  0  0  0  0  0  0  0  0
    4.7550    0.7650   20.0310 C   0  0  0  0  0  0  0  0  0  0  0  0
    4.4990    0.6210   22.1830 H   0  0  0  0  0  0  0  0  0  0  0  0
    2.6730    2.2500   22.3030 H   0  0  0  0  0  0  0  0  0  0  0  0
    1.8230    3.3520   20.2380 H   0  0  0  0  0  0  0  0  0  0  0  0
    2.8200    2.7780   18.0390 H   0  0  0  0  0  0  0  0  0  0  0  0
    4.4210    1.4590   16.7020 H   0  0  0  0  0  0  0  0  0  0  0  0
    7.0430   -1.1950   18.4280 H   0  0  0  0  0  0  0  0  0  0  0  0
    7.1010   -0.0910   21.9790 C   0  0  0  0  0  0  0  0  0  0  0  0
    7.2800    1.1110   21.9710 O   0  0  0  0  0  0  0  0  0  0  0  0
    7.4820   -1.0770   23.0950 C   0  0  1  0  0  0  0  0  0  0  0  0
    6.5360   -0.8040   24.2880 C   0  0  0  0  0  0  0  0  0  0  0  0
    6.9340   -1.5300   25.4800 N   0  0  0  0  0  0  0  0  0  0  0  0
    5.9180   -1.9930   26.4160 C   0  0  0  0  0  0  0  0  0  0  0  0
    5.4590   -0.9050   27.3970 C   0  0  0  0  0  0  0  0  0  0  0  0
    4.4110   -1.3980   28.3500 N   0  3  2  0  0  0  0  0  0  0  0  0
    3.6890   -0.2730   29.0990 C   0  0  0  0  0  0  0  0  0  0  0  0
    3.8910   -0.6530   30.5780 C   0  0  2  0  0  0  0  0  0  0  0  0
    5.3200   -1.2090   30.5700 C   0  0  0  0  0  0  0  0  0  0  0  0
    4.9490   -2.2570   29.5170 C   0  0  1  0  0  0  0  0  0  0  0  0
    3.7460   -2.9010   30.2000 C   0  0  0  0  0  0  0  0  0  0  0  0
    3.0930   -1.8070   30.8630 O   0  0  0  0  0  0  0  0  0  0  0  0
    3.0560   -3.3730   29.4890 H   0  0  0  0  0  0  0  0  0  0  0  0
    4.0390   -3.6500   30.9490 H   0  0  0  0  0  0  0  0  0  0  0  0
    5.7130   -2.9470   29.1670 H   0  0  0  0  0  0  0  0  0  0  0  0
    5.6020   -1.6540   31.5300 H   0  0  0  0  0  0  0  0  0  0  0  0
    6.0970   -0.5030   30.2540 H   0  0  0  0  0  0  0  0  0  0  0  0
    3.6220    0.1220   31.2990 H   0  0  0  0  0  0  0  0  0  0  0  0
    4.1670    0.6760   28.8420 H   0  0  0  0  0  0  0  0  0  0  0  0
    2.6380   -0.2380   28.8120 H   0  0  0  0  0  0  0  0  0  0  0  0
    3.7270   -1.9400   27.7890 H   0  0  0  0  0  0  0  0  0  0  0  0
    5.0420   -0.0610   26.8320 H   0  0  0  0  0  0  0  0  0  0  0  0
    6.3220   -0.5470   27.9710 H   0  0  0  0  0  0  0  0  0  0  0  0
    5.0520   -2.3440   25.8370 H   0  0  0  0  0  0  0  0  0  0  0  0
    6.3370   -2.8380   26.9710 H   0  0  0  0  0  0  0  0  0  0  0  0
    8.2410   -1.5520   25.8860 C   0  0  0  0  0  0  0  0  0  0  0  0
    8.5600   -1.9660   26.9870 O   0  0  0  0  0  0  0  0  0  0  0  0
    9.2640   -1.0930   24.8950 C   0  0  0  0  0  0  0  0  0  0  0  0
   10.5930   -0.9870   25.3040 C   0  0  0  0  0  0  0  0  0  0  0  0
   11.5880   -0.6820   24.3940 C   0  0  0  0  0  0  0  0  0  0  0  0
   11.2350   -0.5010   23.0580 C   0  0  0  0  0  0  0  0  0  0  0  0
   12.4820   -0.1270   21.9070 Cl  0  0  0  0  0  0  0  0  0  0  0  0
    9.9230   -0.6130   22.6330 C   0  0  0  0  0  0  0  0  0  0  0  0
    8.9120   -0.8860   23.5590 C   0  0  0  0  0  0  0  0  0  0  0  0
    9.6840   -0.4710   21.5840 H   0  0  0  0  0  0  0  0  0  0  0  0
   12.6290   -0.5970   24.6880 H   0  0  0  0  0  0  0  0  0  0  0  0
   10.8280   -1.1790   26.3450 H   0  0  0  0  0  0  0  0  0  0  0  0
    6.5570    0.2840   24.4590 H   0  0  0  0  0  0  0  0  0  0  0  0
    5.5120   -1.1130   24.0410 H   0  0  0  0  0  0  0  0  0  0  0  0
    5.2590   -2.4510   21.5310 H   0  0  0  0  0  0  0  0  0  0  0  0
    6.5330   -2.7830   20.3600 H   0  0  0  0  0  0  0  0  0  0  0  0
    8.2540   -2.7330   21.9920 H   0  0  0  0  0  0  0  0  0  0  0  0
    7.5040   -3.7810   24.1530 H   0  0  0  0  0  0  0  0  0  0  0  0
    6.7650   -4.5770   22.7450 H   0  0  0  0  0  0  0  0  0  0  0  0
    5.8220   -3.4490   23.7330 H   0  0  0  0  0  0  0  0  0  0  0  0
  1  2  1  0  0  0  0
  1 65  1  0  0  0  0
  1 66  1  0  0  0  0
  1 67  1  0  0  0  0
  2  3  1  0  0  0  0
  2 23  1  0  0  0  0
  2 64  1  6  0  0  0
  3  4  1  0  0  0  0
  3 62  1  0  0  0  0
  3 63  1  0  0  0  0
  4  5  1  0  0  0  0
  4 21  1  0  0  0  0
  5  6  2  0  0  0  0
  5 14  1  0  0  0  0
  6  7  1  0  0  0  0
  6 20  1  0  0  0  0
  7  8  2  0  0  0  0
  8  9  1  0  0  0  0
  8 19  1  0  0  0  0
  9 10  2  0  0  0  0
  9 14  1  0  0  0  0
 10 11  1  0  0  0  0
 10 18  1  0  0  0  0
 11 12  2  0  0  0  0
 11 17  1  0  0  0  0
 12 13  1  0  0  0  0
 12 16  1  0  0  0  0
 13 14  2  0  0  0  0
 13 15  1  0  0  0  0
 21 22  2  0  0  0  0
 23 21  1  6  0  0  0
 23 24  1  0  0  0  0
 23 56  1  0  0  0  0
 24 25  1  0  0  0  0
 24 60  1  0  0  0  0
 24 61  1  0  0  0  0
 25 26  1  0  0  0  0
 25 48  1  0  0  0  0
 26 27  1  0  0  0  0
 26 46  1  0  0  0  0
 26 47  1  0  0  0  0
 27 28  1  0  0  0  0
 27 44  1  0  0  0  0
 27 45  1  0  0  0  0
 28 29  1  0  0  0  0
 28 32  1  0  0  0  0
 28 43  1  6  0  0  0
 29 30  1  0  0  0  0
 29 41  1  0  0  0  0
 29 42  1  0  0  0  0
 30 31  1  0  0  0  0
 30 34  1  0  0  0  0
 30 40  1  1  0  0  0
 31 32  1  0  0  0  0
 31 38  1  0  0  0  0
 31 39  1  0  0  0  0
 32 33  1  0  0  0  0
 32 37  1  6  0  0  0
 33 34  1  0  0  0  0
 33 35  1  0  0  0  0
 33 36  1  0  0  0  0
 48 49  2  0  0  0  0
 48 50  1  0  0  0  0
 50 51  2  0  0  0  0
 50 56  1  0  0  0  0
 51 52  1  0  0  0  0
 51 59  1  0  0  0  0
 52 53  2  0  0  0  0
 52 58  1  0  0  0  0
 53 54  1  0  0  0  0
 53 55  1  0  0  0  0
 55 56  2  0  0  0  0
 55 57  1  0  0  0  0
M  CHG  1  28   1
M  END
>  <MODEL>
       6

$$$$
best_conformers_14.pdb
 OpenBabel02042510453D

 67 73  0  0  1  0  0  0  0  0999 V2000
    6.8340   -3.6430   23.3030 C   0  0  0  0  0  0  0  0  0  0  0  0
    7.2810   -2.4810   22.4050 C   0  0  1  0  0  0  0  0  0  0  0  0
    6.3000   -2.2070   21.2530 C   0  0  0  0  0  0  0  0  0  0  0  0
    6.4570   -0.7890   20.9780 N   0  0  0  0  0  0  0  0  0  0  0  0
    5.8490   -0.1510   19.8650 C   0  0  0  0  0  0  0  0  0  0  0  0
    6.2580   -0.4560   18.5910 C   0  0  0  0  0  0  0  0  0  0  0  0
    5.7690    0.1160   17.4640 N   0  0  0  0  0  0  0  0  0  0  0  0
    4.8060    0.9980   17.6090 C   0  0  0  0  0  0  0  0  0  0  0  0
    4.2390    1.3660   18.8600 C   0  0  0  0  0  0  0  0  0  0  0  0
    3.1780    2.3090   18.9540 C   0  0  0  0  0  0  0  0  0  0  0  0
    2.6280    2.6220   20.1680 C   0  0  0  0  0  0  0  0  0  0  0  0
    3.1120    1.9960   21.3410 C   0  0  0  0  0  0  0  0  0  0  0  0
    4.1400    1.0900   21.2720 C   0  0  0  0  0  0  0  0  0  0  0  0
    4.7550    0.7650   20.0310 C   0  0  0  0  0  0  0  0  0  0  0  0
    4.5000    0.6220   22.1830 H   0  0  0  0  0  0  0  0  0  0  0  0
    2.6730    2.2490   22.3030 H   0  0  0  0  0  0  0  0  0  0  0  0
    1.8230    3.3510   20.2390 H   0  0  0  0  0  0  0  0  0  0  0  0
    2.8190    2.7780   18.0400 H   0  0  0  0  0  0  0  0  0  0  0  0
    4.4200    1.4600   16.7020 H   0  0  0  0  0  0  0  0  0  0  0  0
    7.0430   -1.1950   18.4280 H   0  0  0  0  0  0  0  0  0  0  0  0
    7.1050   -0.0940   21.9770 C   0  0  0  0  0  0  0  0  0  0  0  0
    7.2840    1.1070   21.9710 O   0  0  0  0  0  0  0  0  0  0  0  0
    7.4960   -1.0830   23.0890 C   0  0  1  0  0  0  0  0  0  0  0  0
    6.5590   -0.8140   24.2920 C   0  0  0  0  0  0  0  0  0  0  0  0
    6.9680   -1.5370   25.4830 N   0  0  0  0  0  0  0  0  0  0  0  0
    5.9560   -1.9980   26.4270 C   0  0  0  0  0  0  0  0  0  0  0  0
    5.4900   -0.9000   27.3880 C   0  0  0  0  0  0  0  0  0  0  0  0
    4.4090   -1.3700   28.3140 N   0  3  2  0  0  0  0  0  0  0  0  0
    3.0300   -1.5780   27.6510 C   0  0  0  0  0  0  0  0  0  0  0  0
    2.1110   -0.6700   28.4880 C   0  0  2  0  0  0  0  0  0  0  0  0
    3.0170    0.5360   28.7630 C   0  0  0  0  0  0  0  0  0  0  0  0
    4.0740   -0.3620   29.4190 C   0  0  1  0  0  0  0  0  0  0  0  0
    3.2070   -1.0750   30.4520 C   0  0  0  0  0  0  0  0  0  0  0  0
    1.9470   -1.2550   29.7850 O   0  0  0  0  0  0  0  0  0  0  0  0
    3.0490   -0.4720   31.3570 H   0  0  0  0  0  0  0  0  0  0  0  0
    3.6200   -2.0470   30.7470 H   0  0  0  0  0  0  0  0  0  0  0  0
    4.9920    0.0840   29.7960 H   0  0  0  0  0  0  0  0  0  0  0  0
    3.3660    1.0710   27.8720 H   0  0  0  0  0  0  0  0  0  0  0  0
    2.5660    1.2460   29.4630 H   0  0  0  0  0  0  0  0  0  0  0  0
    1.1160   -0.5050   28.0710 H   0  0  0  0  0  0  0  0  0  0  0  0
    2.7420   -2.6270   27.7060 H   0  0  0  0  0  0  0  0  0  0  0  0
    3.0900   -1.2620   26.6070 H   0  0  0  0  0  0  0  0  0  0  0  0
    4.7440   -2.2560   28.7400 H   0  0  0  0  0  0  0  0  0  0  0  0
    6.3450   -0.5600   27.9880 H   0  0  0  0  0  0  0  0  0  0  0  0
    5.1120   -0.0420   26.8160 H   0  0  0  0  0  0  0  0  0  0  0  0
    6.3830   -2.8250   27.0040 H   0  0  0  0  0  0  0  0  0  0  0  0
    5.1050   -2.3750   25.8420 H   0  0  0  0  0  0  0  0  0  0  0  0
    8.2770   -1.5550   25.8780 C   0  0  0  0  0  0  0  0  0  0  0  0
    8.6060   -1.9620   26.9790 O   0  0  0  0  0  0  0  0  0  0  0  0
    9.2920   -1.0990   24.8770 C   0  0  0  0  0  0  0  0  0  0  0  0
   10.6230   -0.9920   25.2750 C   0  0  0  0  0  0  0  0  0  0  0  0
   11.6100   -0.6860   24.3580 C   0  0  0  0  0  0  0  0  0  0  0  0
   11.2480   -0.5040   23.0250 C   0  0  0  0  0  0  0  0  0  0  0  0
   12.4880   -0.1280   21.8670 Cl  0  0  0  0  0  0  0  0  0  0  0  0
    9.9330   -0.6160   22.6090 C   0  0  0  0  0  0  0  0  0  0  0  0
    8.9290   -0.8910   23.5430 C   0  0  0  0  0  0  0  0  0  0  0  0
    9.6860   -0.4740   21.5630 H   0  0  0  0  0  0  0  0  0  0  0  0
   12.6540   -0.6000   24.6440 H   0  0  0  0  0  0  0  0  0  0  0  0
   10.8660   -1.1840   26.3140 H   0  0  0  0  0  0  0  0  0  0  0  0
    5.5330   -1.1220   24.0510 H   0  0  0  0  0  0  0  0  0  0  0  0
    6.5790    0.2760   24.4620 H   0  0  0  0  0  0  0  0  0  0  0  0
    5.2630   -2.4520   21.5360 H   0  0  0  0  0  0  0  0  0  0  0  0
    6.5290   -2.7830   20.3560 H   0  0  0  0  0  0  0  0  0  0  0  0
    8.2610   -2.7360   21.9760 H   0  0  0  0  0  0  0  0  0  0  0  0
    7.5230   -3.7860   24.1420 H   0  0  0  0  0  0  0  0  0  0  0  0
    5.8390   -3.4560   23.7290 H   0  0  0  0  0  0  0  0  0  0  0  0
    6.7800   -4.5810   22.7360 H   0  0  0  0  0  0  0  0  0  0  0  0
  1  2  1  0  0  0  0
  1 65  1  0  0  0  0
  1 66  1  0  0  0  0
  1 67  1  0  0  0  0
  2  3  1  0  0  0  0
  2 23  1  0  0  0  0
  2 64  1  6  0  0  0
  3  4  1  0  0  0  0
  3 62  1  0  0  0  0
  3 63  1  0  0  0  0
  4  5  1  0  0  0  0
  4 21  1  0  0  0  0
  5  6  2  0  0  0  0
  5 14  1  0  0  0  0
  6  7  1  0  0  0  0
  6 20  1  0  0  0  0
  7  8  2  0  0  0  0
  8  9  1  0  0  0  0
  8 19  1  0  0  0  0
  9 10  2  0  0  0  0
  9 14  1  0  0  0  0
 10 11  1  0  0  0  0
 10 18  1  0  0  0  0
 11 12  2  0  0  0  0
 11 17  1  0  0  0  0
 12 13  1  0  0  0  0
 12 16  1  0  0  0  0
 13 14  2  0  0  0  0
 13 15  1  0  0  0  0
 21 22  2  0  0  0  0
 23 21  1  6  0  0  0
 23 24  1  0  0  0  0
 23 56  1  0  0  0  0
 24 25  1  0  0  0  0
 24 60  1  0  0  0  0
 24 61  1  0  0  0  0
 25 26  1  0  0  0  0
 25 48  1  0  0  0  0
 26 27  1  0  0  0  0
 26 46  1  0  0  0  0
 26 47  1  0  0  0  0
 27 28  1  0  0  0  0
 27 44  1  0  0  0  0
 27 45  1  0  0  0  0
 28 29  1  0  0  0  0
 28 32  1  0  0  0  0
 28 43  1  1  0  0  0
 29 30  1  0  0  0  0
 29 41  1  0  0  0  0
 29 42  1  0  0  0  0
 30 31  1  0  0  0  0
 30 34  1  0  0  0  0
 30 40  1  6  0  0  0
 31 32  1  0  0  0  0
 31 38  1  0  0  0  0
 31 39  1  0  0  0  0
 32 33  1  0  0  0  0
 32 37  1  1  0  0  0
 33 34  1  0  0  0  0
 33 35  1  0  0  0  0
 33 36  1  0  0  0  0
 48 49  2  0  0  0  0
 48 50  1  0  0  0  0
 50 51  2  0  0  0  0
 50 56  1  0  0  0  0
 51 52  1  0  0  0  0
 51 59  1  0  0  0  0
 52 53  2  0  0  0  0
 52 58  1  0  0  0  0
 53 54  1  0  0  0  0
 53 55  1  0  0  0  0
 55 56  2  0  0  0  0
 55 57  1  0  0  0  0
M  CHG  1  28   1
M  END
>  <MODEL>
       7

$$$$
best_conformers_14.pdb
 OpenBabel02042510453D

 67 73  0  0  1  0  0  0  0  0999 V2000
    6.7830   -3.6240   23.3270 C   0  0  0  0  0  0  0  0  0  0  0  0
    7.2510   -2.4740   22.4280 C   0  0  1  0  0  0  0  0  0  0  0  0
    6.2900   -2.2040   21.2590 C   0  0  0  0  0  0  0  0  0  0  0  0
    6.4550   -0.7890   20.9790 N   0  0  0  0  0  0  0  0  0  0  0  0
    5.8470   -0.1520   19.8650 C   0  0  0  0  0  0  0  0  0  0  0  0
    6.2580   -0.4570   18.5930 C   0  0  0  0  0  0  0  0  0  0  0  0
    5.7700    0.1160   17.4630 N   0  0  0  0  0  0  0  0  0  0  0  0
    4.8070    0.9970   17.6090 C   0  0  0  0  0  0  0  0  0  0  0  0
    4.2410    1.3660   18.8590 C   0  0  0  0  0  0  0  0  0  0  0  0
    3.1800    2.3100   18.9540 C   0  0  0  0  0  0  0  0  0  0  0  0
    2.6310    2.6220   20.1670 C   0  0  0  0  0  0  0  0  0  0  0  0
    3.1130    1.9980   21.3400 C   0  0  0  0  0  0  0  0  0  0  0  0
    4.1390    1.0910   21.2740 C   0  0  0  0  0  0  0  0  0  0  0  0
    4.7550    0.7660   20.0330 C   0  0  0  0  0  0  0  0  0  0  0  0
    4.4990    0.6220   22.1850 H   0  0  0  0  0  0  0  0  0  0  0  0
    2.6740    2.2510   22.3020 H   0  0  0  0  0  0  0  0  0  0  0  0
    1.8260    3.3520   20.2380 H   0  0  0  0  0  0  0  0  0  0  0  0
    2.8210    2.7780   18.0390 H   0  0  0  0  0  0  0  0  0  0  0  0
    4.4200    1.4600   16.7000 H   0  0  0  0  0  0  0  0  0  0  0  0
    7.0440   -1.1950   18.4320 H   0  0  0  0  0  0  0  0  0  0  0  0
    7.0950   -0.0920   21.9810 C   0  0  0  0  0  0  0  0  0  0  0  0
    7.2830    1.1080   21.9660 O   0  0  0  0  0  0  0  0  0  0  0  0
    7.4670   -1.0730   23.1080 C   0  0  1  0  0  0  0  0  0  0  0  0
    6.5200   -0.7810   24.2980 C   0  0  0  0  0  0  0  0  0  0  0  0
    6.9040   -1.4880   25.5100 N   0  0  0  0  0  0  0  0  0  0  0  0
    5.8990   -2.1340   26.3460 C   0  0  0  0  0  0  0  0  0  0  0  0
    5.5780   -1.4560   27.6820 C   0  0  0  0  0  0  0  0  0  0  0  0
    4.9970   -0.0900   27.5230 N   0  3  2  0  0  0  0  0  0  0  0  0
    6.0660    1.0120   27.3750 C   0  0  0  0  0  0  0  0  0  0  0  0
    5.7390    1.9590   28.5430 C   0  0  2  0  0  0  0  0  0  0  0  0
    5.3040    0.9870   29.6440 C   0  0  0  0  0  0  0  0  0  0  0  0
    4.2080    0.4030   28.7480 C   0  0  1  0  0  0  0  0  0  0  0  0
    3.4810    1.6780   28.3420 C   0  0  0  0  0  0  0  0  0  0  0  0
    4.5270    2.6570   28.2340 O   0  0  0  0  0  0  0  0  0  0  0  0
    2.7600    2.0060   29.1010 H   0  0  0  0  0  0  0  0  0  0  0  0
    2.9610    1.5760   27.3810 H   0  0  0  0  0  0  0  0  0  0  0  0
    3.5810   -0.4000   29.1300 H   0  0  0  0  0  0  0  0  0  0  0  0
    4.9050    1.5000   30.5220 H   0  0  0  0  0  0  0  0  0  0  0  0
    6.0650    0.2620   29.9550 H   0  0  0  0  0  0  0  0  0  0  0  0
    6.5030    2.7030   28.7580 H   0  0  0  0  0  0  0  0  0  0  0  0
    7.0480    0.5460   27.4570 H   0  0  0  0  0  0  0  0  0  0  0  0
    5.9620    1.4920   26.4030 H   0  0  0  0  0  0  0  0  0  0  0  0
    4.3840   -0.1230   26.6860 H   0  0  0  0  0  0  0  0  0  0  0  0
    4.8390   -2.0770   28.2010 H   0  0  0  0  0  0  0  0  0  0  0  0
    6.4750   -1.4170   28.3030 H   0  0  0  0  0  0  0  0  0  0  0  0
    4.9740   -2.1590   25.7600 H   0  0  0  0  0  0  0  0  0  0  0  0
    6.2230   -3.1550   26.5730 H   0  0  0  0  0  0  0  0  0  0  0  0
    8.2080   -1.5880   25.8970 C   0  0  0  0  0  0  0  0  0  0  0  0
    8.5180   -2.0710   26.9750 O   0  0  0  0  0  0  0  0  0  0  0  0
    9.2410   -1.1180   24.9190 C   0  0  0  0  0  0  0  0  0  0  0  0
   10.5680   -1.0110   25.3350 C   0  0  0  0  0  0  0  0  0  0  0  0
   11.5640   -0.6890   24.4320 C   0  0  0  0  0  0  0  0  0  0  0  0
   11.2210   -0.4950   23.0940 C   0  0  0  0  0  0  0  0  0  0  0  0
   12.4750   -0.1100   21.9510 Cl  0  0  0  0  0  0  0  0  0  0  0  0
    9.9100   -0.6030   22.6630 C   0  0  0  0  0  0  0  0  0  0  0  0
    8.8950   -0.8880   23.5820 C   0  0  0  0  0  0  0  0  0  0  0  0
    9.6790   -0.4520   21.6140 H   0  0  0  0  0  0  0  0  0  0  0  0
   12.6020   -0.6070   24.7350 H   0  0  0  0  0  0  0  0  0  0  0  0
   10.7970   -1.2130   26.3760 H   0  0  0  0  0  0  0  0  0  0  0  0
    6.5470    0.3080   24.4660 H   0  0  0  0  0  0  0  0  0  0  0  0
    5.4940   -1.0750   24.0380 H   0  0  0  0  0  0  0  0  0  0  0  0
    6.5280   -2.7880   20.3700 H   0  0  0  0  0  0  0  0  0  0  0  0
    5.2480   -2.4400   21.5300 H   0  0  0  0  0  0  0  0  0  0  0  0
    8.2340   -2.7400   22.0130 H   0  0  0  0  0  0  0  0  0  0  0  0
    6.7300   -4.5630   22.7650 H   0  0  0  0  0  0  0  0  0  0  0  0
    5.7840   -3.4290   23.7370 H   0  0  0  0  0  0  0  0  0  0  0  0
    7.4640   -3.7730   24.1720 H   0  0  0  0  0  0  0  0  0  0  0  0
  1  2  1  0  0  0  0
  1 65  1  0  0  0  0
  1 66  1  0  0  0  0
  1 67  1  0  0  0  0
  2  3  1  0  0  0  0
  2 23  1  0  0  0  0
  2 64  1  6  0  0  0
  3  4  1  0  0  0  0
  3 62  1  0  0  0  0
  3 63  1  0  0  0  0
  4  5  1  0  0  0  0
  4 21  1  0  0  0  0
  5  6  2  0  0  0  0
  5 14  1  0  0  0  0
  6  7  1  0  0  0  0
  6 20  1  0  0  0  0
  7  8  2  0  0  0  0
  8  9  1  0  0  0  0
  8 19  1  0  0  0  0
  9 10  2  0  0  0  0
  9 14  1  0  0  0  0
 10 11  1  0  0  0  0
 10 18  1  0  0  0  0
 11 12  2  0  0  0  0
 11 17  1  0  0  0  0
 12 13  1  0  0  0  0
 12 16  1  0  0  0  0
 13 14  2  0  0  0  0
 13 15  1  0  0  0  0
 21 22  2  0  0  0  0
 23 21  1  6  0  0  0
 23 24  1  0  0  0  0
 23 56  1  0  0  0  0
 24 25  1  0  0  0  0
 24 60  1  0  0  0  0
 24 61  1  0  0  0  0
 25 26  1  0  0  0  0
 25 48  1  0  0  0  0
 26 27  1  0  0  0  0
 26 46  1  0  0  0  0
 26 47  1  0  0  0  0
 27 28  1  0  0  0  0
 27 44  1  0  0  0  0
 27 45  1  0  0  0  0
 28 29  1  0  0  0  0
 28 32  1  0  0  0  0
 28 43  1  6  0  0  0
 29 30  1  0  0  0  0
 29 41  1  0  0  0  0
 29 42  1  0  0  0  0
 30 31  1  0  0  0  0
 30 34  1  0  0  0  0
 30 40  1  1  0  0  0
 31 32  1  0  0  0  0
 31 38  1  0  0  0  0
 31 39  1  0  0  0  0
 32 33  1  0  0  0  0
 32 37  1  1  0  0  0
 33 34  1  0  0  0  0
 33 35  1  0  0  0  0
 33 36  1  0  0  0  0
 48 49  2  0  0  0  0
 48 50  1  0  0  0  0
 50 51  2  0  0  0  0
 50 56  1  0  0  0  0
 51 52  1  0  0  0  0
 51 59  1  0  0  0  0
 52 53  2  0  0  0  0
 52 58  1  0  0  0  0
 53 54  1  0  0  0  0
 53 55  1  0  0  0  0
 55 56  2  0  0  0  0
 55 57  1  0  0  0  0
M  CHG  1  28   1
M  END
>  <MODEL>
       8

$$$$
best_conformers_14.pdb
 OpenBabel02042510453D

 67 73  0  0  1  0  0  0  0  0999 V2000
    6.9530   -3.6290   23.2850 C   0  0  0  0  0  0  0  0  0  0  0  0
    7.3580   -2.4520   22.3860 C   0  0  1  0  0  0  0  0  0  0  0  0
    6.3520   -2.1970   21.2500 C   0  0  0  0  0  0  0  0  0  0  0  0
    6.4660   -0.7740   20.9840 N   0  0  0  0  0  0  0  0  0  0  0  0
    5.8530   -0.1470   19.8670 C   0  0  0  0  0  0  0  0  0  0  0  0
    6.2600   -0.4540   18.5920 C   0  0  0  0  0  0  0  0  0  0  0  0
    5.7680    0.1160   17.4640 N   0  0  0  0  0  0  0  0  0  0  0  0
    4.8050    0.9970   17.6090 C   0  0  0  0  0  0  0  0  0  0  0  0
    4.2390    1.3660   18.8590 C   0  0  0  0  0  0  0  0  0  0  0  0
    3.1770    2.3090   18.9540 C   0  0  0  0  0  0  0  0  0  0  0  0
    2.6270    2.6210   20.1680 C   0  0  0  0  0  0  0  0  0  0  0  0
    3.1110    1.9950   21.3400 C   0  0  0  0  0  0  0  0  0  0  0  0
    4.1390    1.0890   21.2710 C   0  0  0  0  0  0  0  0  0  0  0  0
    4.7560    0.7660   20.0310 C   0  0  0  0  0  0  0  0  0  0  0  0
    4.5000    0.6210   22.1810 H   0  0  0  0  0  0  0  0  0  0  0  0
    2.6730    2.2470   22.3030 H   0  0  0  0  0  0  0  0  0  0  0  0
    1.8220    3.3500   20.2390 H   0  0  0  0  0  0  0  0  0  0  0  0
    2.8180    2.7770   18.0400 H   0  0  0  0  0  0  0  0  0  0  0  0
    4.4190    1.4600   16.7010 H   0  0  0  0  0  0  0  0  0  0  0  0
    7.0440   -1.1920   18.4260 H   0  0  0  0  0  0  0  0  0  0  0  0
    7.1160   -0.0690   21.9760 C   0  0  0  0  0  0  0  0  0  0  0  0
    7.2680    1.1370   21.9720 O   0  0  0  0  0  0  0  0  0  0  0  0
    7.5510   -1.0540   23.0750 C   0  0  1  0  0  0  0  0  0  0  0  0
    6.6330   -0.8100   24.2980 C   0  0  0  0  0  0  0  0  0  0  0  0
    7.0840   -1.5150   25.4840 N   0  0  0  0  0  0  0  0  0  0  0  0
    6.1010   -2.0310   26.4290 C   0  0  0  0  0  0  0  0  0  0  0  0
    5.6330   -0.9710   27.4320 C   0  0  0  0  0  0  0  0  0  0  0  0
    4.6240   -1.4450   28.4350 N   0  3  2  0  0  0  0  0  0  0  0  0
    5.1250   -2.4140   29.5060 C   0  0  0  0  0  0  0  0  0  0  0  0
    4.0090   -3.4730   29.5280 C   0  0  2  0  0  0  0  0  0  0  0  0
    3.6770   -3.6190   28.0390 C   0  0  0  0  0  0  0  0  0  0  0  0
    3.3460   -2.1310   27.9190 C   0  0  1  0  0  0  0  0  0  0  0  0
    2.3060   -2.0190   29.0330 C   0  0  0  0  0  0  0  0  0  0  0  0
    2.8230   -2.8720   30.0680 O   0  0  0  0  0  0  0  0  0  0  0  0
    1.3150   -2.3820   28.7230 H   0  0  0  0  0  0  0  0  0  0  0  0
    2.1940   -0.9990   29.4220 H   0  0  0  0  0  0  0  0  0  0  0  0
    3.0490   -1.7190   26.9560 H   0  0  0  0  0  0  0  0  0  0  0  0
    4.5120   -3.9530   27.4130 H   0  0  0  0  0  0  0  0  0  0  0  0
    2.8030   -4.2540   27.8720 H   0  0  0  0  0  0  0  0  0  0  0  0
    4.2260   -4.3660   30.1160 H   0  0  0  0  0  0  0  0  0  0  0  0
    6.0960   -2.8190   29.2100 H   0  0  0  0  0  0  0  0  0  0  0  0
    5.2260   -1.8990   30.4620 H   0  0  0  0  0  0  0  0  0  0  0  0
    4.3150   -0.5850   28.9150 H   0  0  0  0  0  0  0  0  0  0  0  0
    6.5030   -0.5820   27.9740 H   0  0  0  0  0  0  0  0  0  0  0  0
    5.1840   -0.1380   26.8770 H   0  0  0  0  0  0  0  0  0  0  0  0
    5.2400   -2.3930   25.8500 H   0  0  0  0  0  0  0  0  0  0  0  0
    6.5630   -2.8700   26.9580 H   0  0  0  0  0  0  0  0  0  0  0  0
    8.4000   -1.5100   25.8500 C   0  0  0  0  0  0  0  0  0  0  0  0
    8.7690   -1.9120   26.9390 O   0  0  0  0  0  0  0  0  0  0  0  0
    9.3810   -1.0330   24.8270 C   0  0  0  0  0  0  0  0  0  0  0  0
   10.7160   -0.8960   25.2030 C   0  0  0  0  0  0  0  0  0  0  0  0
   11.6760   -0.5590   24.2700 C   0  0  0  0  0  0  0  0  0  0  0  0
   11.2860   -0.3790   22.9460 C   0  0  0  0  0  0  0  0  0  0  0  0
   12.5070    0.0350   21.7820 Cl  0  0  0  0  0  0  0  0  0  0  0  0
    9.9670   -0.5230   22.5510 C   0  0  0  0  0  0  0  0  0  0  0  0
    8.9880   -0.8290   23.5020 C   0  0  0  0  0  0  0  0  0  0  0  0
    9.6970   -0.3800   21.5110 H   0  0  0  0  0  0  0  0  0  0  0  0
   12.7220   -0.4470   24.5350 H   0  0  0  0  0  0  0  0  0  0  0  0
   10.9820   -1.0860   26.2360 H   0  0  0  0  0  0  0  0  0  0  0  0
    6.6230    0.2780   24.4670 H   0  0  0  0  0  0  0  0  0  0  0  0
    5.6110   -1.1480   24.0780 H   0  0  0  0  0  0  0  0  0  0  0  0
    6.5820   -2.7550   20.3440 H   0  0  0  0  0  0  0  0  0  0  0  0
    5.3270   -2.4740   21.5460 H   0  0  0  0  0  0  0  0  0  0  0  0
    8.3370   -2.6820   21.9400 H   0  0  0  0  0  0  0  0  0  0  0  0
    7.6580   -3.7600   24.1130 H   0  0  0  0  0  0  0  0  0  0  0  0
    5.9610   -3.4700   23.7260 H   0  0  0  0  0  0  0  0  0  0  0  0
    6.9150   -4.5660   22.7140 H   0  0  0  0  0  0  0  0  0  0  0  0
  1  2  1  0  0  0  0
  1 65  1  0  0  0  0
  1 66  1  0  0  0  0
  1 67  1  0  0  0  0
  2  3  1  0  0  0  0
  2 23  1  0  0  0  0
  2 64  1  6  0  0  0
  3  4  1  0  0  0  0
  3 62  1  0  0  0  0
  3 63  1  0  0  0  0
  4  5  1  0  0  0  0
  4 21  1  0  0  0  0
  5  6  2  0  0  0  0
  5 14  1  0  0  0  0
  6  7  1  0  0  0  0
  6 20  1  0  0  0  0
  7  8  2  0  0  0  0
  8  9  1  0  0  0  0
  8 19  1  0  0  0  0
  9 10  2  0  0  0  0
  9 14  1  0  0  0  0
 10 11  1  0  0  0  0
 10 18  1  0  0  0  0
 11 12  2  0  0  0  0
 11 17  1  0  0  0  0
 12 13  1  0  0  0  0
 12 16  1  0  0  0  0
 13 14  2  0  0  0  0
 13 15  1  0  0  0  0
 21 22  2  0  0  0  0
 23 21  1  6  0  0  0
 23 24  1  0  0  0  0
 23 56  1  0  0  0  0
 24 25  1  0  0  0  0
 24 60  1  0  0  0  0
 24 61  1  0  0  0  0
 25 26  1  0  0  0  0
 25 48  1  0  0  0  0
 26 27  1  0  0  0  0
 26 46  1  0  0  0  0
 26 47  1  0  0  0  0
 27 28  1  0  0  0  0
 27 44  1  0  0  0  0
 27 45  1  0  0  0  0
 28 29  1  0  0  0  0
 28 32  1  0  0  0  0
 28 43  1  1  0  0  0
 29 30  1  0  0  0  0
 29 41  1  0  0  0  0
 29 42  1  0  0  0  0
 30 31  1  0  0  0  0
 30 34  1  0  0  0  0
 30 40  1  1  0  0  0
 31 32  1  0  0  0  0
 31 38  1  0  0  0  0
 31 39  1  0  0  0  0
 32 33  1  0  0  0  0
 32 37  1  6  0  0  0
 33 34  1  0  0  0  0
 33 35  1  0  0  0  0
 33 36  1  0  0  0  0
 48 49  2  0  0  0  0
 48 50  1  0  0  0  0
 50 51  2  0  0  0  0
 50 56  1  0  0  0  0
 51 52  1  0  0  0  0
 51 59  1  0  0  0  0
 52 53  2  0  0  0  0
 52 58  1  0  0  0  0
 53 54  1  0  0  0  0
 53 55  1  0  0  0  0
 55 56  2  0  0  0  0
 55 57  1  0  0  0  0
M  CHG  1  28   1
M  END
>  <MODEL>
       9

$$$$
