best_conformers_58.pdb
 OpenBabel02042510453D

 57 62  0  0  1  0  0  0  0  0999 V2000
    8.9960   -2.7030   22.1630 C   0  0  0  0  0  0  0  0  0  0  0  0
    7.9820   -1.6210   22.5700 C   0  0  1  0  0  0  0  0  0  0  0  0
    7.7520   -0.6260   21.4040 C   0  0  0  0  0  0  0  0  0  0  0  0
    6.3960   -0.8760   20.9590 N   0  0  0  0  0  0  0  0  0  0  0  0
    5.8010   -0.2100   19.8560 C   0  0  0  0  0  0  0  0  0  0  0  0
    6.2600   -0.4590   18.5870 C   0  0  0  0  0  0  0  0  0  0  0  0
    5.7840    0.1300   17.4620 N   0  0  0  0  0  0  0  0  0  0  0  0
    4.8090    0.9970   17.6090 C   0  0  0  0  0  0  0  0  0  0  0  0
    4.2400    1.3600   18.8640 C   0  0  0  0  0  0  0  0  0  0  0  0
    3.1930    2.3190   18.9580 C   0  0  0  0  0  0  0  0  0  0  0  0
    2.6800    2.6690   20.1750 C   0  0  0  0  0  0  0  0  0  0  0  0
    3.1990    2.0860   21.3550 C   0  0  0  0  0  0  0  0  0  0  0  0
    4.2110    1.1610   21.2930 C   0  0  0  0  0  0  0  0  0  0  0  0
    4.7510    0.7540   20.0350 C   0  0  0  0  0  0  0  0  0  0  0  0
    4.6000    0.7230   22.2120 H   0  0  0  0  0  0  0  0  0  0  0  0
    2.7860    2.3720   22.3180 H   0  0  0  0  0  0  0  0  0  0  0  0
    1.8770    3.4010   20.2460 H   0  0  0  0  0  0  0  0  0  0  0  0
    2.8200    2.7720   18.0410 H   0  0  0  0  0  0  0  0  0  0  0  0
    4.4170    1.4570   16.7010 H   0  0  0  0  0  0  0  0  0  0  0  0
    7.0520   -1.1900   18.4310 H   0  0  0  0  0  0  0  0  0  0  0  0
    5.6850   -1.7440   21.7540 C   0  0  0  0  0  0  0  0  0  0  0  0
    4.5540   -2.1160   21.5240 O   0  0  0  0  0  0  0  0  0  0  0  0
    6.5570   -2.1330   22.9700 C   0  0  1  0  0  0  0  0  0  0  0  0
    6.4850   -3.6570   23.2020 C   0  0  0  0  0  0  0  0  0  0  0  0
    5.1680   -4.0560   23.6510 N   0  0  0  0  0  0  0  0  0  0  0  0
    4.5980   -5.2740   23.1070 C   0  0  0  0  0  0  0  0  0  0  0  0
    5.2080   -6.5240   23.6900 C   0  0  0  0  0  0  0  0  0  0  0  0
    4.6290   -7.1400   24.7970 C   0  0  0  0  0  0  0  0  0  0  0  0
    5.2630   -8.2710   25.2810 C   0  0  0  0  0  0  0  0  0  0  0  0
    6.3550   -8.7680   24.7060 N   0  0  0  0  0  0  0  0  0  0  0  0
    6.8250   -8.1010   23.6560 C   0  0  0  0  0  0  0  0  0  0  0  0
    6.3170   -6.9990   23.1090 N   0  0  0  0  0  0  0  0  0  0  0  0
    7.7380   -8.4940   23.2060 H   0  0  0  0  0  0  0  0  0  0  0  0
    4.9010   -8.8000   26.1660 H   0  0  0  0  0  0  0  0  0  0  0  0
    3.7270   -6.7370   25.2510 H   0  0  0  0  0  0  0  0  0  0  0  0
    3.5260   -5.2520   23.3140 H   0  0  0  0  0  0  0  0  0  0  0  0
    4.7720   -5.2640   22.0230 H   0  0  0  0  0  0  0  0  0  0  0  0
    4.5800   -3.4800   24.7370 C   0  0  0  0  0  0  0  0  0  0  0  0
    3.6930   -4.0400   25.3740 O   0  0  0  0  0  0  0  0  0  0  0  0
    5.0730   -2.1030   25.0550 C   0  0  0  0  0  0  0  0  0  0  0  0
    4.5420   -1.4640   26.1760 C   0  0  0  0  0  0  0  0  0  0  0  0
    4.8810   -0.1570   26.4640 C   0  0  0  0  0  0  0  0  0  0  0  0
    5.7490    0.5000   25.6030 C   0  0  0  0  0  0  0  0  0  0  0  0
    6.0610    1.7810   25.8660 F   0  0  0  0  0  0  0  0  0  0  0  0
    6.2990   -0.1100   24.4930 C   0  0  0  0  0  0  0  0  0  0  0  0
    5.9900   -1.4490   24.2170 C   0  0  0  0  0  0  0  0  0  0  0  0
    6.9520    0.4860   23.8630 H   0  0  0  0  0  0  0  0  0  0  0  0
    4.4820    0.3750   27.3180 H   0  0  0  0  0  0  0  0  0  0  0  0
    3.8450   -2.0240   26.7890 H   0  0  0  0  0  0  0  0  0  0  0  0
    7.2420   -3.9620   23.9430 H   0  0  0  0  0  0  0  0  0  0  0  0
    6.6740   -4.1970   22.2730 H   0  0  0  0  0  0  0  0  0  0  0  0
    7.8760    0.4220   21.7160 H   0  0  0  0  0  0  0  0  0  0  0  0
    8.4600   -0.7950   20.5840 H   0  0  0  0  0  0  0  0  0  0  0  0
    8.4130   -1.1030   23.4330 H   0  0  0  0  0  0  0  0  0  0  0  0
    9.9470   -2.2400   21.8800 H   0  0  0  0  0  0  0  0  0  0  0  0
    9.2040   -3.3960   22.9830 H   0  0  0  0  0  0  0  0  0  0  0  0
    8.6430   -3.2870   21.3090 H   0  0  0  0  0  0  0  0  0  0  0  0
  1  2  1  0  0  0  0
  1 55  1  0  0  0  0
  1 56  1  0  0  0  0
  1 57  1  0  0  0  0
  2  3  1  0  0  0  0
  2 23  1  0  0  0  0
  2 54  1  1  0  0  0
  3  4  1  0  0  0  0
  3 52  1  0  0  0  0
  3 53  1  0  0  0  0
  4  5  1  0  0  0  0
  4 21  1  0  0  0  0
  5  6  2  0  0  0  0
  5 14  1  0  0  0  0
  6  7  1  0  0  0  0
  6 20  1  0  0  0  0
  7  8  2  0  0  0  0
  8  9  1  0  0  0  0
  8 19  1  0  0  0  0
  9 10  2  0  0  0  0
  9 14  1  0  0  0  0
 10 11  1  0  0  0  0
 10 18  1  0  0  0  0
 11 12  2  0  0  0  0
 11 17  1  0  0  0  0
 12 13  1  0  0  0  0
 12 16  1  0  0  0  0
 13 14  2  0  0  0  0
 13 15  1  0  0  0  0
 21 22  2  0  0  0  0
 23 21  1  6  0  0  0
 23 24  1  0  0  0  0
 23 46  1  0  0  0  0
 24 25  1  0  0  0  0
 24 50  1  0  0  0  0
 24 51  1  0  0  0  0
 25 26  1  0  0  0  0
 25 38  1  0  0  0  0
 26 27  1  0  0  0  0
 26 36  1  0  0  0  0
 26 37  1  0  0  0  0
 27 28  2  0  0  0  0
 27 32  1  0  0  0  0
 28 29  1  0  0  0  0
 28 35  1  0  0  0  0
 29 30  2  0  0  0  0
 29 34  1  0  0  0  0
 30 31  1  0  0  0  0
 31 32  2  0  0  0  0
 31 33  1  0  0  0  0
 38 39  2  0  0  0  0
 38 40  1  0  0  0  0
 40 41  2  0  0  0  0
 40 46  1  0  0  0  0
 41 42  1  0  0  0  0
 41 49  1  0  0  0  0
 42 43  2  0  0  0  0
 42 48  1  0  0  0  0
 43 44  1  0  0  0  0
 43 45  1  0  0  0  0
 45 46  2  0  0  0  0
 45 47  1  0  0  0  0
M  END
>  <MODEL>
       1

$$$$
