best_conformers_40.pdb
 OpenBabel02042510453D

 57 61  0  0  1  0  0  0  0  0999 V2000
    5.0000   -8.1970   25.4560 C   0  0  0  0  0  0  0  0  0  0  0  0
    4.5070   -7.0000   24.8110 N   0  0  0  0  0  0  0  0  0  0  0  0
    5.1800   -6.5210   23.7420 C   0  0  0  0  0  0  0  0  0  0  0  0
    6.1990   -7.0410   23.3150 O   0  0  0  0  0  0  0  0  0  0  0  0
    4.5890   -5.2680   23.1150 C   0  0  0  0  0  0  0  0  0  0  0  0
    5.1650   -4.0650   23.6670 N   0  0  0  0  0  0  0  0  0  0  0  0
    6.4790   -3.6460   23.2140 C   0  0  0  0  0  0  0  0  0  0  0  0
    6.5330   -2.1280   22.9630 C   0  0  2  0  0  0  0  0  0  0  0  0
    5.6890   -1.7620   21.7360 C   0  0  0  0  0  0  0  0  0  0  0  0
    4.5730   -2.1580   21.4760 O   0  0  0  0  0  0  0  0  0  0  0  0
    6.3970   -0.8790   20.9570 N   0  0  0  0  0  0  0  0  0  0  0  0
    5.8070   -0.2060   19.8590 C   0  0  0  0  0  0  0  0  0  0  0  0
    6.2710   -0.4570   18.5920 C   0  0  0  0  0  0  0  0  0  0  0  0
    5.7920    0.1250   17.4660 N   0  0  0  0  0  0  0  0  0  0  0  0
    4.8160    0.9900   17.6130 C   0  0  0  0  0  0  0  0  0  0  0  0
    4.2480    1.3510   18.8680 C   0  0  0  0  0  0  0  0  0  0  0  0
    3.2030    2.3080   18.9580 C   0  0  0  0  0  0  0  0  0  0  0  0
    2.6870    2.6640   20.1730 C   0  0  0  0  0  0  0  0  0  0  0  0
    3.1990    2.0830   21.3560 C   0  0  0  0  0  0  0  0  0  0  0  0
    4.2090    1.1540   21.3020 C   0  0  0  0  0  0  0  0  0  0  0  0
    4.7520    0.7490   20.0440 C   0  0  0  0  0  0  0  0  0  0  0  0
    4.5960    0.7320   22.2300 H   0  0  0  0  0  0  0  0  0  0  0  0
    2.7820    2.3760   22.3160 H   0  0  0  0  0  0  0  0  0  0  0  0
    1.8840    3.3970   20.2410 H   0  0  0  0  0  0  0  0  0  0  0  0
    2.8320    2.7610   18.0420 H   0  0  0  0  0  0  0  0  0  0  0  0
    4.4230    1.4520   16.7080 H   0  0  0  0  0  0  0  0  0  0  0  0
    7.0650   -1.1910   18.4470 H   0  0  0  0  0  0  0  0  0  0  0  0
    7.7490   -0.6260   21.4040 C   0  0  0  0  0  0  0  0  0  0  0  0
    7.9580   -1.6010   22.5850 C   0  0  2  0  0  0  0  0  0  0  0  0
    9.0000   -2.6890   22.2170 C   0  0  0  0  0  0  0  0  0  0  0  0
   10.3270   -2.1150   21.9600 C   0  0  0  0  0  0  0  0  0  0  0  0
   11.3670   -1.6480   21.7530 N   0  0  0  0  0  0  0  0  0  0  0  0
    9.1100   -3.4100   23.0320 H   0  0  0  0  0  0  0  0  0  0  0  0
    8.6950   -3.2380   21.3210 H   0  0  0  0  0  0  0  0  0  0  0  0
    8.3880   -1.0830   23.4520 H   0  0  0  0  0  0  0  0  0  0  0  0
    7.8660    0.4260   21.7010 H   0  0  0  0  0  0  0  0  0  0  0  0
    8.4670   -0.8080   20.5970 H   0  0  0  0  0  0  0  0  0  0  0  0
    5.9440   -1.4400   24.1980 C   0  0  0  0  0  0  0  0  0  0  0  0
    6.2480   -0.1000   24.4710 C   0  0  0  0  0  0  0  0  0  0  0  0
    5.6840    0.5280   25.5710 C   0  0  0  0  0  0  0  0  0  0  0  0
    6.0660    2.2000   25.8930 Cl  0  0  0  0  0  0  0  0  0  0  0  0
    4.8060   -0.1430   26.4220 C   0  0  0  0  0  0  0  0  0  0  0  0
    4.4750   -1.4560   26.1420 C   0  0  0  0  0  0  0  0  0  0  0  0
    5.0250   -2.0930   25.0330 C   0  0  0  0  0  0  0  0  0  0  0  0
    4.5490   -3.4800   24.7330 C   0  0  0  0  0  0  0  0  0  0  0  0
    3.6530   -4.0360   25.3650 O   0  0  0  0  0  0  0  0  0  0  0  0
    3.7750   -2.0250   26.7480 H   0  0  0  0  0  0  0  0  0  0  0  0
    4.3810    0.3780   27.2710 H   0  0  0  0  0  0  0  0  0  0  0  0
    6.9200    0.4740   23.8380 H   0  0  0  0  0  0  0  0  0  0  0  0
    7.2190   -3.9110   23.9840 H   0  0  0  0  0  0  0  0  0  0  0  0
    6.6870   -4.2010   22.2970 H   0  0  0  0  0  0  0  0  0  0  0  0
    4.7980   -5.2870   22.0430 H   0  0  0  0  0  0  0  0  0  0  0  0
    3.5150   -5.2150   23.2920 H   0  0  0  0  0  0  0  0  0  0  0  0
    3.6920   -6.5120   25.1510 H   0  0  0  0  0  0  0  0  0  0  0  0
    4.3290   -8.4970   26.2620 H   0  0  0  0  0  0  0  0  0  0  0  0
    6.0010   -8.0210   25.8550 H   0  0  0  0  0  0  0  0  0  0  0  0
    5.0850   -8.9910   24.7190 H   0  0  0  0  0  0  0  0  0  0  0  0
  1  2  1  0  0  0  0
  1 55  1  0  0  0  0
  1 56  1  0  0  0  0
  1 57  1  0  0  0  0
  2  3  1  0  0  0  0
  2 54  1  0  0  0  0
  3  4  2  0  0  0  0
  3  5  1  0  0  0  0
  5  6  1  0  0  0  0
  5 52  1  0  0  0  0
  5 53  1  0  0  0  0
  6  7  1  0  0  0  0
  6 45  1  0  0  0  0
  7  8  1  0  0  0  0
  7 50  1  0  0  0  0
  7 51  1  0  0  0  0
  8  9  1  6  0  0  0
  8 29  1  0  0  0  0
  8 38  1  0  0  0  0
  9 10  2  0  0  0  0
  9 11  1  0  0  0  0
 11 12  1  0  0  0  0
 11 28  1  0  0  0  0
 12 13  2  0  0  0  0
 12 21  1  0  0  0  0
 13 14  1  0  0  0  0
 13 27  1  0  0  0  0
 14 15  2  0  0  0  0
 15 16  1  0  0  0  0
 15 26  1  0  0  0  0
 16 17  2  0  0  0  0
 16 21  1  0  0  0  0
 17 18  1  0  0  0  0
 17 25  1  0  0  0  0
 18 19  2  0  0  0  0
 18 24  1  0  0  0  0
 19 20  1  0  0  0  0
 19 23  1  0  0  0  0
 20 21  2  0  0  0  0
 20 22  1  0  0  0  0
 28 29  1  0  0  0  0
 28 36  1  0  0  0  0
 28 37  1  0  0  0  0
 29 30  1  0  0  0  0
 29 35  1  1  0  0  0
 30 31  1  0  0  0  0
 30 33  1  0  0  0  0
 30 34  1  0  0  0  0
 31 32  3  0  0  0  0
 38 39  2  0  0  0  0
 38 44  1  0  0  0  0
 39 40  1  0  0  0  0
 39 49  1  0  0  0  0
 40 41  1  0  0  0  0
 40 42  2  0  0  0  0
 42 43  1  0  0  0  0
 42 48  1  0  0  0  0
 43 44  2  0  0  0  0
 43 47  1  0  0  0  0
 44 45  1  0  0  0  0
 45 46  2  0  0  0  0
M  END
>  <MODEL>
       1

$$$$
best_conformers_40.pdb
 OpenBabel02042510453D

 57 61  0  0  1  0  0  0  0  0999 V2000
    5.5230    0.2290   29.5160 C   0  0  0  0  0  0  0  0  0  0  0  0
    5.9100   -0.8330   28.6100 N   0  0  0  0  0  0  0  0  0  0  0  0
    5.4170   -0.8490   27.3500 C   0  0  0  0  0  0  0  0  0  0  0  0
    4.5790   -0.0480   26.9630 O   0  0  0  0  0  0  0  0  0  0  0  0
    5.9300   -1.9550   26.4340 C   0  0  0  0  0  0  0  0  0  0  0  0
    6.9310   -1.5060   25.4890 N   0  0  0  0  0  0  0  0  0  0  0  0
    6.5220   -0.8070   24.2840 C   0  0  0  0  0  0  0  0  0  0  0  0
    7.4710   -1.0790   23.0910 C   0  0  2  0  0  0  0  0  0  0  0  0
    7.0890   -0.0940   21.9710 C   0  0  0  0  0  0  0  0  0  0  0  0
    7.2780    1.1050   21.9520 O   0  0  0  0  0  0  0  0  0  0  0  0
    6.4450   -0.7920   20.9750 N   0  0  0  0  0  0  0  0  0  0  0  0
    5.8430   -0.1540   19.8670 C   0  0  0  0  0  0  0  0  0  0  0  0
    6.2660   -0.4600   18.5970 C   0  0  0  0  0  0  0  0  0  0  0  0
    5.7820    0.1110   17.4670 N   0  0  0  0  0  0  0  0  0  0  0  0
    4.8160    0.9890   17.6130 C   0  0  0  0  0  0  0  0  0  0  0  0
    4.2490    1.3610   18.8670 C   0  0  0  0  0  0  0  0  0  0  0  0
    3.1870    2.3030   18.9550 C   0  0  0  0  0  0  0  0  0  0  0  0
    2.6330    2.6170   20.1650 C   0  0  0  0  0  0  0  0  0  0  0  0
    3.1110    1.9980   21.3420 C   0  0  0  0  0  0  0  0  0  0  0  0
    4.1380    1.0930   21.2830 C   0  0  0  0  0  0  0  0  0  0  0  0
    4.7570    0.7650   20.0410 C   0  0  0  0  0  0  0  0  0  0  0  0
    4.4940    0.6290   22.1980 H   0  0  0  0  0  0  0  0  0  0  0  0
    2.6680    2.2510   22.3000 H   0  0  0  0  0  0  0  0  0  0  0  0
    1.8300    3.3480   20.2300 H   0  0  0  0  0  0  0  0  0  0  0  0
    2.8330    2.7690   18.0380 H   0  0  0  0  0  0  0  0  0  0  0  0
    4.4260    1.4490   16.7050 H   0  0  0  0  0  0  0  0  0  0  0  0
    7.0540   -1.1980   18.4490 H   0  0  0  0  0  0  0  0  0  0  0  0
    6.2830   -2.2040   21.2540 C   0  0  0  0  0  0  0  0  0  0  0  0
    7.2750   -2.4670   22.3940 C   0  0  2  0  0  0  0  0  0  0  0  0
    6.8600   -3.6350   23.3100 C   0  0  0  0  0  0  0  0  0  0  0  0
    6.8640   -4.9160   22.5940 C   0  0  0  0  0  0  0  0  0  0  0  0
    6.8780   -5.9230   22.0240 N   0  0  0  0  0  0  0  0  0  0  0  0
    7.5450   -3.7180   24.1560 H   0  0  0  0  0  0  0  0  0  0  0  0
    5.8540   -3.4790   23.7160 H   0  0  0  0  0  0  0  0  0  0  0  0
    8.2500   -2.7230   21.9590 H   0  0  0  0  0  0  0  0  0  0  0  0
    5.2500   -2.4220   21.5590 H   0  0  0  0  0  0  0  0  0  0  0  0
    6.4940   -2.7900   20.3620 H   0  0  0  0  0  0  0  0  0  0  0  0
    8.8970   -0.8790   23.5670 C   0  0  0  0  0  0  0  0  0  0  0  0
    9.9100   -0.6020   22.6400 C   0  0  0  0  0  0  0  0  0  0  0  0
   11.2220   -0.4840   23.0700 C   0  0  0  0  0  0  0  0  0  0  0  0
   12.4830   -0.1120   21.9270 Cl  0  0  0  0  0  0  0  0  0  0  0  0
   11.5620   -0.6520   24.4140 C   0  0  0  0  0  0  0  0  0  0  0  0
   10.5700   -0.9640   25.3270 C   0  0  0  0  0  0  0  0  0  0  0  0
    9.2490   -1.0890   24.9040 C   0  0  0  0  0  0  0  0  0  0  0  0
    8.2320   -1.5440   25.8960 C   0  0  0  0  0  0  0  0  0  0  0  0
    8.5520   -1.9760   26.9950 O   0  0  0  0  0  0  0  0  0  0  0  0
   10.7750   -1.1470   26.3790 H   0  0  0  0  0  0  0  0  0  0  0  0
   12.5970   -0.5660   24.7220 H   0  0  0  0  0  0  0  0  0  0  0  0
    9.6810   -0.4710   21.5870 H   0  0  0  0  0  0  0  0  0  0  0  0
    6.5240    0.2780   24.4580 H   0  0  0  0  0  0  0  0  0  0  0  0
    5.4980   -1.1230   24.0410 H   0  0  0  0  0  0  0  0  0  0  0  0
    5.0580   -2.3190   25.8840 H   0  0  0  0  0  0  0  0  0  0  0  0
    6.3840   -2.7610   27.0060 H   0  0  0  0  0  0  0  0  0  0  0  0
    6.6830   -1.4380   28.8350 H   0  0  0  0  0  0  0  0  0  0  0  0
    5.7550    1.2060   29.0840 H   0  0  0  0  0  0  0  0  0  0  0  0
    4.4450    0.2130   29.6990 H   0  0  0  0  0  0  0  0  0  0  0  0
    6.0550    0.1070   30.4610 H   0  0  0  0  0  0  0  0  0  0  0  0
  1  2  1  0  0  0  0
  1 55  1  0  0  0  0
  1 56  1  0  0  0  0
  1 57  1  0  0  0  0
  2  3  1  0  0  0  0
  2 54  1  0  0  0  0
  3  4  2  0  0  0  0
  3  5  1  0  0  0  0
  5  6  1  0  0  0  0
  5 52  1  0  0  0  0
  5 53  1  0  0  0  0
  6  7  1  0  0  0  0
  6 45  1  0  0  0  0
  7  8  1  0  0  0  0
  7 50  1  0  0  0  0
  7 51  1  0  0  0  0
  8  9  1  6  0  0  0
  8 29  1  0  0  0  0
  8 38  1  0  0  0  0
  9 10  2  0  0  0  0
  9 11  1  0  0  0  0
 11 12  1  0  0  0  0
 11 28  1  0  0  0  0
 12 13  2  0  0  0  0
 12 21  1  0  0  0  0
 13 14  1  0  0  0  0
 13 27  1  0  0  0  0
 14 15  2  0  0  0  0
 15 16  1  0  0  0  0
 15 26  1  0  0  0  0
 16 17  2  0  0  0  0
 16 21  1  0  0  0  0
 17 18  1  0  0  0  0
 17 25  1  0  0  0  0
 18 19  2  0  0  0  0
 18 24  1  0  0  0  0
 19 20  1  0  0  0  0
 19 23  1  0  0  0  0
 20 21  2  0  0  0  0
 20 22  1  0  0  0  0
 28 29  1  0  0  0  0
 28 36  1  0  0  0  0
 28 37  1  0  0  0  0
 29 30  1  0  0  0  0
 29 35  1  6  0  0  0
 30 31  1  0  0  0  0
 30 33  1  0  0  0  0
 30 34  1  0  0  0  0
 31 32  3  0  0  0  0
 38 39  2  0  0  0  0
 38 44  1  0  0  0  0
 39 40  1  0  0  0  0
 39 49  1  0  0  0  0
 40 41  1  0  0  0  0
 40 42  2  0  0  0  0
 42 43  1  0  0  0  0
 42 48  1  0  0  0  0
 43 44  2  0  0  0  0
 43 47  1  0  0  0  0
 44 45  1  0  0  0  0
 45 46  2  0  0  0  0
M  END
>  <MODEL>
       2

$$$$
