best_conformers_85.pdb
 OpenBabel02042510453D

 55 60  0  0  1  0  0  0  0  0999 V2000
    8.9960   -2.7060   22.1620 C   0  0  0  0  0  0  0  0  0  0  0  0
    7.9820   -1.6230   22.5710 C   0  0  1  0  0  0  0  0  0  0  0  0
    7.7540   -0.6260   21.4050 C   0  0  0  0  0  0  0  0  0  0  0  0
    6.3960   -0.8730   20.9590 N   0  0  0  0  0  0  0  0  0  0  0  0
    5.8020   -0.2060   19.8540 C   0  0  0  0  0  0  0  0  0  0  0  0
    6.2560   -0.4580   18.5840 C   0  0  0  0  0  0  0  0  0  0  0  0
    5.7810    0.1310   17.4590 N   0  0  0  0  0  0  0  0  0  0  0  0
    4.8070    1.0000   17.6070 C   0  0  0  0  0  0  0  0  0  0  0  0
    4.2380    1.3630   18.8610 C   0  0  0  0  0  0  0  0  0  0  0  0
    3.1910    2.3220   18.9570 C   0  0  0  0  0  0  0  0  0  0  0  0
    2.6780    2.6700   20.1750 C   0  0  0  0  0  0  0  0  0  0  0  0
    3.1990    2.0850   21.3540 C   0  0  0  0  0  0  0  0  0  0  0  0
    4.2120    1.1610   21.2890 C   0  0  0  0  0  0  0  0  0  0  0  0
    4.7500    0.7550   20.0320 C   0  0  0  0  0  0  0  0  0  0  0  0
    4.6010    0.7220   22.2070 H   0  0  0  0  0  0  0  0  0  0  0  0
    2.7860    2.3700   22.3170 H   0  0  0  0  0  0  0  0  0  0  0  0
    1.8770    3.4010   20.2470 H   0  0  0  0  0  0  0  0  0  0  0  0
    2.8170    2.7750   18.0400 H   0  0  0  0  0  0  0  0  0  0  0  0
    4.4150    1.4610   16.6990 H   0  0  0  0  0  0  0  0  0  0  0  0
    7.0480   -1.1890   18.4290 H   0  0  0  0  0  0  0  0  0  0  0  0
    5.6840   -1.7390   21.7560 C   0  0  0  0  0  0  0  0  0  0  0  0
    4.5510   -2.1120   21.5290 O   0  0  0  0  0  0  0  0  0  0  0  0
    6.5540   -2.1310   22.9710 C   0  0  1  0  0  0  0  0  0  0  0  0
    6.4770   -3.6560   23.1910 C   0  0  0  0  0  0  0  0  0  0  0  0
    5.1540   -4.0510   23.6210 N   0  0  0  0  0  0  0  0  0  0  0  0
    4.5920   -5.2770   23.0890 C   0  0  0  0  0  0  0  0  0  0  0  0
    5.1420   -6.5270   23.7210 C   0  0  0  0  0  0  0  0  0  0  0  0
    4.6800   -7.1850   24.8050 C   0  0  0  0  0  0  0  0  0  0  0  0
    5.5180   -8.2270   25.0720 O   0  0  0  0  0  0  0  0  0  0  0  0
    6.4590   -8.1380   24.1110 C   0  0  0  0  0  0  0  0  0  0  0  0
    6.3010   -7.1680   23.2780 N   0  0  0  0  0  0  0  0  0  0  0  0
    7.2500   -8.8740   24.1520 H   0  0  0  0  0  0  0  0  0  0  0  0
    3.8370   -7.0570   25.4670 H   0  0  0  0  0  0  0  0  0  0  0  0
    4.7860   -5.2810   22.0080 H   0  0  0  0  0  0  0  0  0  0  0  0
    3.5120   -5.2250   23.2550 H   0  0  0  0  0  0  0  0  0  0  0  0
    4.5790   -3.4890   24.7260 C   0  0  0  0  0  0  0  0  0  0  0  0
    3.7060   -4.0600   25.3710 O   0  0  0  0  0  0  0  0  0  0  0  0
    5.0720   -2.1130   25.0570 C   0  0  0  0  0  0  0  0  0  0  0  0
    4.5400   -1.4780   26.1800 C   0  0  0  0  0  0  0  0  0  0  0  0
    4.8750   -0.1690   26.4710 C   0  0  0  0  0  0  0  0  0  0  0  0
    5.7410    0.4920   25.6100 C   0  0  0  0  0  0  0  0  0  0  0  0
    6.0500    1.7740   25.8740 F   0  0  0  0  0  0  0  0  0  0  0  0
    6.2930   -0.1150   24.5000 C   0  0  0  0  0  0  0  0  0  0  0  0
    5.9890   -1.4550   24.2220 C   0  0  0  0  0  0  0  0  0  0  0  0
    6.9420    0.4810   23.8670 H   0  0  0  0  0  0  0  0  0  0  0  0
    4.4720    0.3590   27.3260 H   0  0  0  0  0  0  0  0  0  0  0  0
    3.8410   -2.0360   26.7950 H   0  0  0  0  0  0  0  0  0  0  0  0
    6.6820   -4.1830   22.2580 H   0  0  0  0  0  0  0  0  0  0  0  0
    7.2250   -3.9530   23.9430 H   0  0  0  0  0  0  0  0  0  0  0  0
    8.4610   -0.7950   20.5840 H   0  0  0  0  0  0  0  0  0  0  0  0
    7.8780    0.4210   21.7220 H   0  0  0  0  0  0  0  0  0  0  0  0
    8.4180   -1.1050   23.4340 H   0  0  0  0  0  0  0  0  0  0  0  0
    9.2040   -3.4020   22.9800 H   0  0  0  0  0  0  0  0  0  0  0  0
    8.6440   -3.2880   21.3050 H   0  0  0  0  0  0  0  0  0  0  0  0
    9.9480   -2.2410   21.8800 H   0  0  0  0  0  0  0  0  0  0  0  0
  1  2  1  0  0  0  0
  1 53  1  0  0  0  0
  1 54  1  0  0  0  0
  1 55  1  0  0  0  0
  2  3  1  0  0  0  0
  2 23  1  0  0  0  0
  2 52  1  1  0  0  0
  3  4  1  0  0  0  0
  3 50  1  0  0  0  0
  3 51  1  0  0  0  0
  4  5  1  0  0  0  0
  4 21  1  0  0  0  0
  5  6  2  0  0  0  0
  5 14  1  0  0  0  0
  6  7  1  0  0  0  0
  6 20  1  0  0  0  0
  7  8  2  0  0  0  0
  8  9  1  0  0  0  0
  8 19  1  0  0  0  0
  9 10  2  0  0  0  0
  9 14  1  0  0  0  0
 10 11  1  0  0  0  0
 10 18  1  0  0  0  0
 11 12  2  0  0  0  0
 11 17  1  0  0  0  0
 12 13  1  0  0  0  0
 12 16  1  0  0  0  0
 13 14  2  0  0  0  0
 13 15  1  0  0  0  0
 21 22  2  0  0  0  0
 23 21  1  6  0  0  0
 23 24  1  0  0  0  0
 23 44  1  0  0  0  0
 24 25  1  0  0  0  0
 24 48  1  0  0  0  0
 24 49  1  0  0  0  0
 25 26  1  0  0  0  0
 25 36  1  0  0  0  0
 26 27  1  0  0  0  0
 26 34  1  0  0  0  0
 26 35  1  0  0  0  0
 27 28  2  0  0  0  0
 27 31  1  0  0  0  0
 28 29  1  0  0  0  0
 28 33  1  0  0  0  0
 29 30  1  0  0  0  0
 30 31  2  0  0  0  0
 30 32  1  0  0  0  0
 36 37  2  0  0  0  0
 36 38  1  0  0  0  0
 38 39  2  0  0  0  0
 38 44  1  0  0  0  0
 39 40  1  0  0  0  0
 39 47  1  0  0  0  0
 40 41  2  0  0  0  0
 40 46  1  0  0  0  0
 41 42  1  0  0  0  0
 41 43  1  0  0  0  0
 43 44  2  0  0  0  0
 43 45  1  0  0  0  0
M  END
>  <MODEL>
       1

$$$$
best_conformers_85.pdb
 OpenBabel02042510453D

 55 60  0  0  1  0  0  0  0  0999 V2000
    6.8120   -3.6200   23.3270 C   0  0  0  0  0  0  0  0  0  0  0  0
    7.2640   -2.4780   22.4130 C   0  0  1  0  0  0  0  0  0  0  0  0
    6.2860   -2.2050   21.2570 C   0  0  0  0  0  0  0  0  0  0  0  0
    6.4520   -0.7900   20.9760 N   0  0  0  0  0  0  0  0  0  0  0  0
    5.8480   -0.1510   19.8660 C   0  0  0  0  0  0  0  0  0  0  0  0
    6.2640   -0.4590   18.5940 C   0  0  0  0  0  0  0  0  0  0  0  0
    5.7770    0.1120   17.4660 N   0  0  0  0  0  0  0  0  0  0  0  0
    4.8130    0.9920   17.6120 C   0  0  0  0  0  0  0  0  0  0  0  0
    4.2450    1.3630   18.8660 C   0  0  0  0  0  0  0  0  0  0  0  0
    3.1820    2.3060   18.9560 C   0  0  0  0  0  0  0  0  0  0  0  0
    2.6310    2.6200   20.1670 C   0  0  0  0  0  0  0  0  0  0  0  0
    3.1120    1.9990   21.3420 C   0  0  0  0  0  0  0  0  0  0  0  0
    4.1400    1.0930   21.2790 C   0  0  0  0  0  0  0  0  0  0  0  0
    4.7580    0.7660   20.0370 C   0  0  0  0  0  0  0  0  0  0  0  0
    4.4980    0.6280   22.1910 H   0  0  0  0  0  0  0  0  0  0  0  0
    2.6720    2.2530   22.3020 H   0  0  0  0  0  0  0  0  0  0  0  0
    1.8270    3.3520   20.2340 H   0  0  0  0  0  0  0  0  0  0  0  0
    2.8270    2.7730   18.0390 H   0  0  0  0  0  0  0  0  0  0  0  0
    4.4250    1.4510   16.7040 H   0  0  0  0  0  0  0  0  0  0  0  0
    7.0480   -1.1980   18.4390 H   0  0  0  0  0  0  0  0  0  0  0  0
    7.1070   -0.0930   21.9630 C   0  0  0  0  0  0  0  0  0  0  0  0
    7.2920    1.1110   21.9480 O   0  0  0  0  0  0  0  0  0  0  0  0
    7.5000   -1.0730   23.0850 C   0  0  1  0  0  0  0  0  0  0  0  0
    6.5730   -0.7470   24.2770 C   0  0  0  0  0  0  0  0  0  0  0  0
    7.0070   -1.3330   25.5340 N   0  0  0  0  0  0  0  0  0  0  0  0
    5.9940   -1.6750   26.5200 C   0  0  0  0  0  0  0  0  0  0  0  0
    5.6440   -3.1320   26.5610 C   0  0  0  0  0  0  0  0  0  0  0  0
    6.3610   -4.1410   27.1020 C   0  0  0  0  0  0  0  0  0  0  0  0
    5.6570   -5.2940   26.9400 O   0  0  0  0  0  0  0  0  0  0  0  0
    4.5530   -4.9300   26.2820 C   0  0  0  0  0  0  0  0  0  0  0  0
    4.4700   -3.6620   26.0290 N   0  0  0  0  0  0  0  0  0  0  0  0
    3.9040   -5.7470   26.0100 H   0  0  0  0  0  0  0  0  0  0  0  0
    7.3260   -4.2210   27.5690 H   0  0  0  0  0  0  0  0  0  0  0  0
    5.0880   -1.1050   26.2960 H   0  0  0  0  0  0  0  0  0  0  0  0
    6.3950   -1.3730   27.4930 H   0  0  0  0  0  0  0  0  0  0  0  0
    8.3140   -1.5350   25.8730 C   0  0  0  0  0  0  0  0  0  0  0  0
    8.6360   -2.0580   26.9310 O   0  0  0  0  0  0  0  0  0  0  0  0
    9.3190   -1.1140   24.8560 C   0  0  0  0  0  0  0  0  0  0  0  0
   10.6580   -1.0420   25.2350 C   0  0  0  0  0  0  0  0  0  0  0  0
   11.6320   -0.7460   24.2980 C   0  0  0  0  0  0  0  0  0  0  0  0
   11.2440   -0.5490   22.9780 C   0  0  0  0  0  0  0  0  0  0  0  0
   12.1880   -0.2700   22.0650 F   0  0  0  0  0  0  0  0  0  0  0  0
    9.9270   -0.6290   22.5740 C   0  0  0  0  0  0  0  0  0  0  0  0
    8.9370   -0.8910   23.5280 C   0  0  0  0  0  0  0  0  0  0  0  0
    9.6830   -0.4710   21.5290 H   0  0  0  0  0  0  0  0  0  0  0  0
   12.6830   -0.6820   24.5520 H   0  0  0  0  0  0  0  0  0  0  0  0
   10.8940   -1.2480   26.2750 H   0  0  0  0  0  0  0  0  0  0  0  0
    6.5390    0.3540   24.3460 H   0  0  0  0  0  0  0  0  0  0  0  0
    5.5680   -1.1440   24.0760 H   0  0  0  0  0  0  0  0  0  0  0  0
    5.2490   -2.4300   21.5510 H   0  0  0  0  0  0  0  0  0  0  0  0
    6.5050   -2.7840   20.3590 H   0  0  0  0  0  0  0  0  0  0  0  0
    8.2420   -2.7380   21.9790 H   0  0  0  0  0  0  0  0  0  0  0  0
    6.7800   -4.5630   22.7730 H   0  0  0  0  0  0  0  0  0  0  0  0
    5.8110   -3.4430   23.7360 H   0  0  0  0  0  0  0  0  0  0  0  0
    7.4910   -3.7490   24.1770 H   0  0  0  0  0  0  0  0  0  0  0  0
  1  2  1  0  0  0  0
  1 53  1  0  0  0  0
  1 54  1  0  0  0  0
  1 55  1  0  0  0  0
  2  3  1  0  0  0  0
  2 23  1  0  0  0  0
  2 52  1  6  0  0  0
  3  4  1  0  0  0  0
  3 50  1  0  0  0  0
  3 51  1  0  0  0  0
  4  5  1  0  0  0  0
  4 21  1  0  0  0  0
  5  6  2  0  0  0  0
  5 14  1  0  0  0  0
  6  7  1  0  0  0  0
  6 20  1  0  0  0  0
  7  8  2  0  0  0  0
  8  9  1  0  0  0  0
  8 19  1  0  0  0  0
  9 10  2  0  0  0  0
  9 14  1  0  0  0  0
 10 11  1  0  0  0  0
 10 18  1  0  0  0  0
 11 12  2  0  0  0  0
 11 17  1  0  0  0  0
 12 13  1  0  0  0  0
 12 16  1  0  0  0  0
 13 14  2  0  0  0  0
 13 15  1  0  0  0  0
 21 22  2  0  0  0  0
 23 21  1  6  0  0  0
 23 24  1  0  0  0  0
 23 44  1  0  0  0  0
 24 25  1  0  0  0  0
 24 48  1  0  0  0  0
 24 49  1  0  0  0  0
 25 26  1  0  0  0  0
 25 36  1  0  0  0  0
 26 27  1  0  0  0  0
 26 34  1  0  0  0  0
 26 35  1  0  0  0  0
 27 28  2  0  0  0  0
 27 31  1  0  0  0  0
 28 29  1  0  0  0  0
 28 33  1  0  0  0  0
 29 30  1  0  0  0  0
 30 31  2  0  0  0  0
 30 32  1  0  0  0  0
 36 37  2  0  0  0  0
 36 38  1  0  0  0  0
 38 39  2  0  0  0  0
 38 44  1  0  0  0  0
 39 40  1  0  0  0  0
 39 47  1  0  0  0  0
 40 41  2  0  0  0  0
 40 46  1  0  0  0  0
 41 42  1  0  0  0  0
 41 43  1  0  0  0  0
 43 44  2  0  0  0  0
 43 45  1  0  0  0  0
M  END
>  <MODEL>
       2

$$$$
best_conformers_85.pdb
 OpenBabel02042510453D

 55 60  0  0  1  0  0  0  0  0999 V2000
    8.9970   -2.7010   22.1670 C   0  0  0  0  0  0  0  0  0  0  0  0
    7.9820   -1.6160   22.5730 C   0  0  1  0  0  0  0  0  0  0  0  0
    7.7540   -0.6230   21.4050 C   0  0  0  0  0  0  0  0  0  0  0  0
    6.3960   -0.8730   20.9590 N   0  0  0  0  0  0  0  0  0  0  0  0
    5.8030   -0.2070   19.8540 C   0  0  0  0  0  0  0  0  0  0  0  0
    6.2570   -0.4600   18.5850 C   0  0  0  0  0  0  0  0  0  0  0  0
    5.7820    0.1310   17.4600 N   0  0  0  0  0  0  0  0  0  0  0  0
    4.8090    0.9990   17.6090 C   0  0  0  0  0  0  0  0  0  0  0  0
    4.2390    1.3620   18.8620 C   0  0  0  0  0  0  0  0  0  0  0  0
    3.1910    2.3210   18.9570 C   0  0  0  0  0  0  0  0  0  0  0  0
    2.6780    2.6690   20.1750 C   0  0  0  0  0  0  0  0  0  0  0  0
    3.1990    2.0860   21.3540 C   0  0  0  0  0  0  0  0  0  0  0  0
    4.2120    1.1610   21.2900 C   0  0  0  0  0  0  0  0  0  0  0  0
    4.7500    0.7540   20.0340 C   0  0  0  0  0  0  0  0  0  0  0  0
    4.6000    0.7230   22.2090 H   0  0  0  0  0  0  0  0  0  0  0  0
    2.7850    2.3710   22.3180 H   0  0  0  0  0  0  0  0  0  0  0  0
    1.8760    3.4010   20.2460 H   0  0  0  0  0  0  0  0  0  0  0  0
    2.8180    2.7740   18.0400 H   0  0  0  0  0  0  0  0  0  0  0  0
    4.4160    1.4580   16.7000 H   0  0  0  0  0  0  0  0  0  0  0  0
    7.0500   -1.1890   18.4300 H   0  0  0  0  0  0  0  0  0  0  0  0
    5.6840   -1.7380   21.7570 C   0  0  0  0  0  0  0  0  0  0  0  0
    4.5530   -2.1170   21.5280 O   0  0  0  0  0  0  0  0  0  0  0  0
    6.5530   -2.1200   22.9760 C   0  0  1  0  0  0  0  0  0  0  0  0
    6.4700   -3.6430   23.2080 C   0  0  0  0  0  0  0  0  0  0  0  0
    5.1490   -4.0420   23.6500 N   0  0  0  0  0  0  0  0  0  0  0  0
    4.5830   -5.2730   23.1320 C   0  0  0  0  0  0  0  0  0  0  0  0
    5.1220   -6.5240   23.7770 C   0  0  0  0  0  0  0  0  0  0  0  0
    6.2670   -7.1930   23.5120 C   0  0  0  0  0  0  0  0  0  0  0  0
    6.3950   -8.2110   24.4100 O   0  0  0  0  0  0  0  0  0  0  0  0
    5.2940   -8.1090   25.1760 C   0  0  0  0  0  0  0  0  0  0  0  0
    4.4950   -7.1530   24.8530 N   0  0  0  0  0  0  0  0  0  0  0  0
    5.2150   -8.8160   25.9900 H   0  0  0  0  0  0  0  0  0  0  0  0
    7.0580   -7.1160   22.7820 H   0  0  0  0  0  0  0  0  0  0  0  0
    4.7890   -5.2740   22.0530 H   0  0  0  0  0  0  0  0  0  0  0  0
    3.5010   -5.2250   23.2860 H   0  0  0  0  0  0  0  0  0  0  0  0
    4.5650   -3.4510   24.7350 C   0  0  0  0  0  0  0  0  0  0  0  0
    3.6640   -3.9790   25.3730 O   0  0  0  0  0  0  0  0  0  0  0  0
    5.0790   -2.0860   25.0600 C   0  0  0  0  0  0  0  0  0  0  0  0
    4.5430   -1.4520   26.1820 C   0  0  0  0  0  0  0  0  0  0  0  0
    4.8770   -0.1440   26.4670 C   0  0  0  0  0  0  0  0  0  0  0  0
    5.7440    0.5130   25.6030 C   0  0  0  0  0  0  0  0  0  0  0  0
    6.0510    1.7950   25.8630 F   0  0  0  0  0  0  0  0  0  0  0  0
    6.2990   -0.0960   24.4950 C   0  0  0  0  0  0  0  0  0  0  0  0
    5.9950   -1.4350   24.2230 C   0  0  0  0  0  0  0  0  0  0  0  0
    6.9480    0.4970   23.8610 H   0  0  0  0  0  0  0  0  0  0  0  0
    4.4710    0.3870   27.3190 H   0  0  0  0  0  0  0  0  0  0  0  0
    3.8420   -2.0140   26.7910 H   0  0  0  0  0  0  0  0  0  0  0  0
    6.6750   -4.1600   22.2700 H   0  0  0  0  0  0  0  0  0  0  0  0
    7.2230   -3.9330   23.9570 H   0  0  0  0  0  0  0  0  0  0  0  0
    7.8760    0.4250   21.7180 H   0  0  0  0  0  0  0  0  0  0  0  0
    8.4610   -0.7940   20.5840 H   0  0  0  0  0  0  0  0  0  0  0  0
    8.4180   -1.0960   23.4350 H   0  0  0  0  0  0  0  0  0  0  0  0
    9.9490   -2.2350   21.8840 H   0  0  0  0  0  0  0  0  0  0  0  0
    8.6450   -3.2860   21.3110 H   0  0  0  0  0  0  0  0  0  0  0  0
    9.2060   -3.3930   22.9870 H   0  0  0  0  0  0  0  0  0  0  0  0
  1  2  1  0  0  0  0
  1 53  1  0  0  0  0
  1 54  1  0  0  0  0
  1 55  1  0  0  0  0
  2  3  1  0  0  0  0
  2 23  1  0  0  0  0
  2 52  1  1  0  0  0
  3  4  1  0  0  0  0
  3 50  1  0  0  0  0
  3 51  1  0  0  0  0
  4  5  1  0  0  0  0
  4 21  1  0  0  0  0
  5  6  2  0  0  0  0
  5 14  1  0  0  0  0
  6  7  1  0  0  0  0
  6 20  1  0  0  0  0
  7  8  2  0  0  0  0
  8  9  1  0  0  0  0
  8 19  1  0  0  0  0
  9 10  2  0  0  0  0
  9 14  1  0  0  0  0
 10 11  1  0  0  0  0
 10 18  1  0  0  0  0
 11 12  2  0  0  0  0
 11 17  1  0  0  0  0
 12 13  1  0  0  0  0
 12 16  1  0  0  0  0
 13 14  2  0  0  0  0
 13 15  1  0  0  0  0
 21 22  2  0  0  0  0
 23 21  1  6  0  0  0
 23 24  1  0  0  0  0
 23 44  1  0  0  0  0
 24 25  1  0  0  0  0
 24 48  1  0  0  0  0
 24 49  1  0  0  0  0
 25 26  1  0  0  0  0
 25 36  1  0  0  0  0
 26 27  1  0  0  0  0
 26 34  1  0  0  0  0
 26 35  1  0  0  0  0
 27 28  2  0  0  0  0
 27 31  1  0  0  0  0
 28 29  1  0  0  0  0
 28 33  1  0  0  0  0
 29 30  1  0  0  0  0
 30 31  2  0  0  0  0
 30 32  1  0  0  0  0
 36 37  2  0  0  0  0
 36 38  1  0  0  0  0
 38 39  2  0  0  0  0
 38 44  1  0  0  0  0
 39 40  1  0  0  0  0
 39 47  1  0  0  0  0
 40 41  2  0  0  0  0
 40 46  1  0  0  0  0
 41 42  1  0  0  0  0
 41 43  1  0  0  0  0
 43 44  2  0  0  0  0
 43 45  1  0  0  0  0
M  END
>  <MODEL>
       3

$$$$
