best_conformers_25.pdb
 OpenBabel02042510453D

 68 73  0  0  1  0  0  0  0  0999 V2000
    5.0630   -8.1770   25.4620 C   0  0  0  0  0  0  0  0  0  0  0  0
    4.5610   -6.9830   24.8250 N   0  0  0  0  0  0  0  0  0  0  0  0
    5.2170   -6.5160   23.7340 C   0  0  0  0  0  0  0  0  0  0  0  0
    6.2350   -7.0310   23.3020 O   0  0  0  0  0  0  0  0  0  0  0  0
    4.6070   -5.2690   23.1110 C   0  0  0  0  0  0  0  0  0  0  0  0
    5.1820   -4.0700   23.6700 N   0  0  0  0  0  0  0  0  0  0  0  0
    6.4920   -3.6450   23.2140 C   0  0  0  0  0  0  0  0  0  0  0  0
    6.5410   -2.1260   22.9610 C   0  0  2  0  0  0  0  0  0  0  0  0
    5.6920   -1.7680   21.7310 C   0  0  0  0  0  0  0  0  0  0  0  0
    4.5880   -2.1840   21.4630 O   0  0  0  0  0  0  0  0  0  0  0  0
    6.3910   -0.8690   20.9620 N   0  0  0  0  0  0  0  0  0  0  0  0
    5.8060   -0.2050   19.8630 C   0  0  0  0  0  0  0  0  0  0  0  0
    6.2740   -0.4550   18.5970 C   0  0  0  0  0  0  0  0  0  0  0  0
    5.7960    0.1220   17.4680 N   0  0  0  0  0  0  0  0  0  0  0  0
    4.8170    0.9850   17.6140 C   0  0  0  0  0  0  0  0  0  0  0  0
    4.2510    1.3480   18.8700 C   0  0  0  0  0  0  0  0  0  0  0  0
    3.2060    2.3050   18.9580 C   0  0  0  0  0  0  0  0  0  0  0  0
    2.6900    2.6610   20.1720 C   0  0  0  0  0  0  0  0  0  0  0  0
    3.1980    2.0810   21.3570 C   0  0  0  0  0  0  0  0  0  0  0  0
    4.2080    1.1510   21.3060 C   0  0  0  0  0  0  0  0  0  0  0  0
    4.7520    0.7480   20.0460 C   0  0  0  0  0  0  0  0  0  0  0  0
    4.5950    0.7330   22.2370 H   0  0  0  0  0  0  0  0  0  0  0  0
    2.7820    2.3790   22.3160 H   0  0  0  0  0  0  0  0  0  0  0  0
    1.8890    3.3940   20.2390 H   0  0  0  0  0  0  0  0  0  0  0  0
    2.8370    2.7560   18.0420 H   0  0  0  0  0  0  0  0  0  0  0  0
    4.4250    1.4520   16.7110 H   0  0  0  0  0  0  0  0  0  0  0  0
    7.0680   -1.1890   18.4540 H   0  0  0  0  0  0  0  0  0  0  0  0
    7.7410   -0.6110   21.4000 C   0  0  0  0  0  0  0  0  0  0  0  0
    7.9570   -1.5880   22.5750 C   0  0  2  0  0  0  0  0  0  0  0  0
    9.0170   -2.6500   22.1900 C   0  0  0  0  0  0  0  0  0  0  0  0
   10.3020   -2.0590   21.8870 N   0  0  0  0  0  0  0  0  0  0  0  0
   11.1780   -1.6590   22.8820 C   0  0  0  0  0  0  0  0  0  0  0  0
   12.4280   -0.9980   22.7410 C   0  0  0  0  0  0  0  0  0  0  0  0
   12.9730   -0.7320   23.9230 N   0  0  0  0  0  0  0  0  0  0  0  0
   12.1110   -1.2110   24.8150 N   0  0  0  0  0  0  0  0  0  0  0  0
   12.2360   -0.9430   26.2190 C   0  0  0  0  0  0  0  0  0  0  0  0
   11.5090   -0.1750   26.4880 H   0  0  0  0  0  0  0  0  0  0  0  0
   13.2510   -0.6000   26.4190 H   0  0  0  0  0  0  0  0  0  0  0  0
   12.0020   -1.8500   26.7840 H   0  0  0  0  0  0  0  0  0  0  0  0
   11.0150   -1.7670   24.2430 C   0  0  0  0  0  0  0  0  0  0  0  0
   10.2090   -2.1310   24.8710 H   0  0  0  0  0  0  0  0  0  0  0  0
   12.9220   -0.6500   21.8420 H   0  0  0  0  0  0  0  0  0  0  0  0
   10.6340   -2.0600   20.9360 H   0  0  0  0  0  0  0  0  0  0  0  0
    8.6810   -3.2190   21.3120 H   0  0  0  0  0  0  0  0  0  0  0  0
    9.1250   -3.3610   23.0210 H   0  0  0  0  0  0  0  0  0  0  0  0
    8.3800   -1.0690   23.4430 H   0  0  0  0  0  0  0  0  0  0  0  0
    8.4420   -0.7860   20.5770 H   0  0  0  0  0  0  0  0  0  0  0  0
    7.8590    0.4390   21.6990 H   0  0  0  0  0  0  0  0  0  0  0  0
    5.9440   -1.4400   24.1940 C   0  0  0  0  0  0  0  0  0  0  0  0
    6.2320   -0.0960   24.4690 C   0  0  0  0  0  0  0  0  0  0  0  0
    5.6720    0.5200   25.5780 C   0  0  0  0  0  0  0  0  0  0  0  0
    6.0490    2.1940   25.9010 Cl  0  0  0  0  0  0  0  0  0  0  0  0
    4.8020   -0.1580   26.4330 C   0  0  0  0  0  0  0  0  0  0  0  0
    4.4800   -1.4700   26.1460 C   0  0  0  0  0  0  0  0  0  0  0  0
    5.0330   -2.1000   25.0330 C   0  0  0  0  0  0  0  0  0  0  0  0
    4.5660   -3.4880   24.7360 C   0  0  0  0  0  0  0  0  0  0  0  0
    3.6750   -4.0430   25.3730 O   0  0  0  0  0  0  0  0  0  0  0  0
    3.7840   -2.0450   26.7530 H   0  0  0  0  0  0  0  0  0  0  0  0
    4.3750    0.3590   27.2840 H   0  0  0  0  0  0  0  0  0  0  0  0
    6.8860    0.4890   23.8290 H   0  0  0  0  0  0  0  0  0  0  0  0
    7.2370   -3.9030   23.9780 H   0  0  0  0  0  0  0  0  0  0  0  0
    6.7080   -4.2000   22.2980 H   0  0  0  0  0  0  0  0  0  0  0  0
    3.5340   -5.2310   23.3020 H   0  0  0  0  0  0  0  0  0  0  0  0
    4.8050   -5.2850   22.0350 H   0  0  0  0  0  0  0  0  0  0  0  0
    3.7530   -6.4940   25.1840 H   0  0  0  0  0  0  0  0  0  0  0  0
    4.3960   -8.5030   26.2650 H   0  0  0  0  0  0  0  0  0  0  0  0
    6.0640   -7.9970   25.8620 H   0  0  0  0  0  0  0  0  0  0  0  0
    5.1570   -8.9650   24.7160 H   0  0  0  0  0  0  0  0  0  0  0  0
  1  2  1  0  0  0  0
  1 66  1  0  0  0  0
  1 67  1  0  0  0  0
  1 68  1  0  0  0  0
  2  3  1  0  0  0  0
  2 65  1  0  0  0  0
  3  4  2  0  0  0  0
  3  5  1  0  0  0  0
  5  6  1  0  0  0  0
  5 63  1  0  0  0  0
  5 64  1  0  0  0  0
  6  7  1  0  0  0  0
  6 56  1  0  0  0  0
  7  8  1  0  0  0  0
  7 61  1  0  0  0  0
  7 62  1  0  0  0  0
  8  9  1  6  0  0  0
  8 29  1  0  0  0  0
  8 49  1  0  0  0  0
  9 10  2  0  0  0  0
  9 11  1  0  0  0  0
 11 12  1  0  0  0  0
 11 28  1  0  0  0  0
 12 13  2  0  0  0  0
 12 21  1  0  0  0  0
 13 14  1  0  0  0  0
 13 27  1  0  0  0  0
 14 15  2  0  0  0  0
 15 16  1  0  0  0  0
 15 26  1  0  0  0  0
 16 17  2  0  0  0  0
 16 21  1  0  0  0  0
 17 18  1  0  0  0  0
 17 25  1  0  0  0  0
 18 19  2  0  0  0  0
 18 24  1  0  0  0  0
 19 20  1  0  0  0  0
 19 23  1  0  0  0  0
 20 21  2  0  0  0  0
 20 22  1  0  0  0  0
 28 29  1  0  0  0  0
 28 47  1  0  0  0  0
 28 48  1  0  0  0  0
 29 30  1  0  0  0  0
 29 46  1  1  0  0  0
 30 31  1  0  0  0  0
 30 44  1  0  0  0  0
 30 45  1  0  0  0  0
 31 32  1  0  0  0  0
 31 43  1  0  0  0  0
 32 33  1  0  0  0  0
 32 40  2  0  0  0  0
 33 34  2  0  0  0  0
 33 42  1  0  0  0  0
 34 35  1  0  0  0  0
 35 36  1  0  0  0  0
 35 40  1  0  0  0  0
 36 37  1  0  0  0  0
 36 38  1  0  0  0  0
 36 39  1  0  0  0  0
 40 41  1  0  0  0  0
 49 50  2  0  0  0  0
 49 55  1  0  0  0  0
 50 51  1  0  0  0  0
 50 60  1  0  0  0  0
 51 52  1  0  0  0  0
 51 53  2  0  0  0  0
 53 54  1  0  0  0  0
 53 59  1  0  0  0  0
 54 55  2  0  0  0  0
 54 58  1  0  0  0  0
 55 56  1  0  0  0  0
 56 57  2  0  0  0  0
M  END
>  <MODEL>
       1

$$$$
best_conformers_25.pdb
 OpenBabel02042510453D

 68 73  0  0  1  0  0  0  0  0999 V2000
    5.0890   -8.1330   25.4930 C   0  0  0  0  0  0  0  0  0  0  0  0
    4.5760   -6.9560   24.8310 N   0  0  0  0  0  0  0  0  0  0  0  0
    5.2400   -6.5050   23.7380 C   0  0  0  0  0  0  0  0  0  0  0  0
    6.2690   -7.0160   23.3160 O   0  0  0  0  0  0  0  0  0  0  0  0
    4.6080   -5.2720   23.1010 C   0  0  0  0  0  0  0  0  0  0  0  0
    5.1730   -4.0690   23.6640 N   0  0  0  0  0  0  0  0  0  0  0  0
    6.4810   -3.6370   23.2210 C   0  0  0  0  0  0  0  0  0  0  0  0
    6.5070   -2.1240   22.9510 C   0  0  2  0  0  0  0  0  0  0  0  0
    5.6750   -1.8000   21.6960 C   0  0  0  0  0  0  0  0  0  0  0  0
    4.5970   -2.2570   21.3880 O   0  0  0  0  0  0  0  0  0  0  0  0
    6.3710   -0.8770   20.9540 N   0  0  0  0  0  0  0  0  0  0  0  0
    5.7980   -0.2110   19.8580 C   0  0  0  0  0  0  0  0  0  0  0  0
    6.2820   -0.4550   18.6000 C   0  0  0  0  0  0  0  0  0  0  0  0
    5.8120    0.1200   17.4700 N   0  0  0  0  0  0  0  0  0  0  0  0
    4.8250    0.9760   17.6160 C   0  0  0  0  0  0  0  0  0  0  0  0
    4.2540    1.3390   18.8720 C   0  0  0  0  0  0  0  0  0  0  0  0
    3.2120    2.2980   18.9570 C   0  0  0  0  0  0  0  0  0  0  0  0
    2.6950    2.6520   20.1700 C   0  0  0  0  0  0  0  0  0  0  0  0
    3.1980    2.0750   21.3590 C   0  0  0  0  0  0  0  0  0  0  0  0
    4.2100    1.1460   21.3140 C   0  0  0  0  0  0  0  0  0  0  0  0
    4.7510    0.7430   20.0510 C   0  0  0  0  0  0  0  0  0  0  0  0
    4.5920    0.7290   22.2480 H   0  0  0  0  0  0  0  0  0  0  0  0
    2.7830    2.3840   22.3140 H   0  0  0  0  0  0  0  0  0  0  0  0
    1.9000    3.3910   20.2290 H   0  0  0  0  0  0  0  0  0  0  0  0
    2.8510    2.7440   18.0340 H   0  0  0  0  0  0  0  0  0  0  0  0
    4.4330    1.4460   16.7140 H   0  0  0  0  0  0  0  0  0  0  0  0
    7.0850   -1.1810   18.4720 H   0  0  0  0  0  0  0  0  0  0  0  0
    7.7120   -0.6020   21.4040 C   0  0  0  0  0  0  0  0  0  0  0  0
    7.9160   -1.5900   22.5650 C   0  0  2  0  0  0  0  0  0  0  0  0
    8.9260   -2.6800   22.1660 C   0  0  0  0  0  0  0  0  0  0  0  0
   10.2180   -2.1480   21.8640 N   0  0  0  0  0  0  0  0  0  0  0  0
   11.0180   -1.6560   22.8730 C   0  0  0  0  0  0  0  0  0  0  0  0
   10.8290   -1.7080   24.2830 C   0  0  0  0  0  0  0  0  0  0  0  0
   11.8480   -1.1460   24.9250 N   0  0  0  0  0  0  0  0  0  0  0  0
   12.6730   -0.7220   23.9670 N   0  0  0  0  0  0  0  0  0  0  0  0
   13.9750   -0.2440   24.3420 C   0  0  0  0  0  0  0  0  0  0  0  0
   14.7100   -1.0510   24.2670 H   0  0  0  0  0  0  0  0  0  0  0  0
   14.2490    0.6110   23.7120 H   0  0  0  0  0  0  0  0  0  0  0  0
   13.9150    0.0160   25.3970 H   0  0  0  0  0  0  0  0  0  0  0  0
   12.2260   -1.0140   22.7220 C   0  0  0  0  0  0  0  0  0  0  0  0
   12.7770   -0.7390   21.8320 H   0  0  0  0  0  0  0  0  0  0  0  0
   10.0120   -2.1470   24.8500 H   0  0  0  0  0  0  0  0  0  0  0  0
   10.5460   -2.0970   20.9110 H   0  0  0  0  0  0  0  0  0  0  0  0
    9.0600   -3.3730   23.0000 H   0  0  0  0  0  0  0  0  0  0  0  0
    8.5640   -3.2610   21.3180 H   0  0  0  0  0  0  0  0  0  0  0  0
    8.3540   -1.0880   23.4320 H   0  0  0  0  0  0  0  0  0  0  0  0
    8.4230   -0.7560   20.5870 H   0  0  0  0  0  0  0  0  0  0  0  0
    7.8160    0.4470   21.7140 H   0  0  0  0  0  0  0  0  0  0  0  0
    5.9040   -1.4360   24.1750 C   0  0  0  0  0  0  0  0  0  0  0  0
    6.1850   -0.0970   24.4580 C   0  0  0  0  0  0  0  0  0  0  0  0
    5.6150    0.5130   25.5640 C   0  0  0  0  0  0  0  0  0  0  0  0
    5.9940    2.1780   25.8960 Cl  0  0  0  0  0  0  0  0  0  0  0  0
    4.7440   -0.1620   26.4170 C   0  0  0  0  0  0  0  0  0  0  0  0
    4.4360   -1.4730   26.1220 C   0  0  0  0  0  0  0  0  0  0  0  0
    4.9970   -2.0980   25.0130 C   0  0  0  0  0  0  0  0  0  0  0  0
    4.5500   -3.4900   24.7220 C   0  0  0  0  0  0  0  0  0  0  0  0
    3.6670   -4.0640   25.3570 O   0  0  0  0  0  0  0  0  0  0  0  0
    3.7460   -2.0530   26.7250 H   0  0  0  0  0  0  0  0  0  0  0  0
    4.3100    0.3460   27.2720 H   0  0  0  0  0  0  0  0  0  0  0  0
    6.8530    0.4850   23.8290 H   0  0  0  0  0  0  0  0  0  0  0  0
    7.2390   -3.8780   23.9810 H   0  0  0  0  0  0  0  0  0  0  0  0
    6.7180   -4.1980   22.3190 H   0  0  0  0  0  0  0  0  0  0  0  0
    3.5290   -5.2470   23.2830 H   0  0  0  0  0  0  0  0  0  0  0  0
    4.8050   -5.2720   22.0250 H   0  0  0  0  0  0  0  0  0  0  0  0
    3.8190   -6.4110   25.2250 H   0  0  0  0  0  0  0  0  0  0  0  0
    5.1960   -8.9150   24.7410 H   0  0  0  0  0  0  0  0  0  0  0  0
    6.0800   -7.9420   25.9240 H   0  0  0  0  0  0  0  0  0  0  0  0
    4.3960   -8.4650   26.2680 H   0  0  0  0  0  0  0  0  0  0  0  0
  1  2  1  0  0  0  0
  1 66  1  0  0  0  0
  1 67  1  0  0  0  0
  1 68  1  0  0  0  0
  2  3  1  0  0  0  0
  2 65  1  0  0  0  0
  3  4  2  0  0  0  0
  3  5  1  0  0  0  0
  5  6  1  0  0  0  0
  5 63  1  0  0  0  0
  5 64  1  0  0  0  0
  6  7  1  0  0  0  0
  6 56  1  0  0  0  0
  7  8  1  0  0  0  0
  7 61  1  0  0  0  0
  7 62  1  0  0  0  0
  8  9  1  6  0  0  0
  8 29  1  0  0  0  0
  8 49  1  0  0  0  0
  9 10  2  0  0  0  0
  9 11  1  0  0  0  0
 11 12  1  0  0  0  0
 11 28  1  0  0  0  0
 12 13  2  0  0  0  0
 12 21  1  0  0  0  0
 13 14  1  0  0  0  0
 13 27  1  0  0  0  0
 14 15  2  0  0  0  0
 15 16  1  0  0  0  0
 15 26  1  0  0  0  0
 16 17  2  0  0  0  0
 16 21  1  0  0  0  0
 17 18  1  0  0  0  0
 17 25  1  0  0  0  0
 18 19  2  0  0  0  0
 18 24  1  0  0  0  0
 19 20  1  0  0  0  0
 19 23  1  0  0  0  0
 20 21  2  0  0  0  0
 20 22  1  0  0  0  0
 28 29  1  0  0  0  0
 28 47  1  0  0  0  0
 28 48  1  0  0  0  0
 29 30  1  0  0  0  0
 29 46  1  1  0  0  0
 30 31  1  0  0  0  0
 30 44  1  0  0  0  0
 30 45  1  0  0  0  0
 31 32  1  0  0  0  0
 31 43  1  0  0  0  0
 32 33  1  0  0  0  0
 32 40  2  0  0  0  0
 33 34  2  0  0  0  0
 33 42  1  0  0  0  0
 34 35  1  0  0  0  0
 35 36  1  0  0  0  0
 35 40  1  0  0  0  0
 36 37  1  0  0  0  0
 36 38  1  0  0  0  0
 36 39  1  0  0  0  0
 40 41  1  0  0  0  0
 49 50  2  0  0  0  0
 49 55  1  0  0  0  0
 50 51  1  0  0  0  0
 50 60  1  0  0  0  0
 51 52  1  0  0  0  0
 51 53  2  0  0  0  0
 53 54  1  0  0  0  0
 53 59  1  0  0  0  0
 54 55  2  0  0  0  0
 54 58  1  0  0  0  0
 55 56  1  0  0  0  0
 56 57  2  0  0  0  0
M  END
>  <MODEL>
       2

$$$$
best_conformers_25.pdb
 OpenBabel02042510453D

 68 73  0  0  1  0  0  0  0  0999 V2000
    5.0380   -8.1680   25.5590 C   0  0  0  0  0  0  0  0  0  0  0  0
    4.4940   -7.0210   24.8520 N   0  0  0  0  0  0  0  0  0  0  0  0
    5.1720   -6.5210   23.7900 C   0  0  0  0  0  0  0  0  0  0  0  0
    6.1940   -7.0330   23.3580 O   0  0  0  0  0  0  0  0  0  0  0  0
    4.5670   -5.2590   23.1520 C   0  0  0  0  0  0  0  0  0  0  0  0
    5.1170   -4.0270   23.6740 N   0  0  0  0  0  0  0  0  0  0  0  0
    6.4540   -3.6290   23.2700 C   0  0  0  0  0  0  0  0  0  0  0  0
    6.5380   -2.1070   22.9930 C   0  0  2  0  0  0  0  0  0  0  0  0
    5.6870   -1.7470   21.7550 C   0  0  0  0  0  0  0  0  0  0  0  0
    4.5630   -2.1310   21.5130 O   0  0  0  0  0  0  0  0  0  0  0  0
    6.4010   -0.8780   20.9580 N   0  0  0  0  0  0  0  0  0  0  0  0
    5.8040   -0.2070   19.8550 C   0  0  0  0  0  0  0  0  0  0  0  0
    6.2550   -0.4580   18.5840 C   0  0  0  0  0  0  0  0  0  0  0  0
    5.7800    0.1320   17.4590 N   0  0  0  0  0  0  0  0  0  0  0  0
    4.8060    1.0010   17.6070 C   0  0  0  0  0  0  0  0  0  0  0  0
    4.2380    1.3630   18.8620 C   0  0  0  0  0  0  0  0  0  0  0  0
    3.1910    2.3220   18.9560 C   0  0  0  0  0  0  0  0  0  0  0  0
    2.6780    2.6690   20.1760 C   0  0  0  0  0  0  0  0  0  0  0  0
    3.1990    2.0840   21.3540 C   0  0  0  0  0  0  0  0  0  0  0  0
    4.2120    1.1600   21.2910 C   0  0  0  0  0  0  0  0  0  0  0  0
    4.7510    0.7540   20.0320 C   0  0  0  0  0  0  0  0  0  0  0  0
    4.6010    0.7240   22.2120 H   0  0  0  0  0  0  0  0  0  0  0  0
    2.7830    2.3690   22.3160 H   0  0  0  0  0  0  0  0  0  0  0  0
    1.8770    3.4010   20.2480 H   0  0  0  0  0  0  0  0  0  0  0  0
    2.8170    2.7760   18.0410 H   0  0  0  0  0  0  0  0  0  0  0  0
    4.4140    1.4610   16.7000 H   0  0  0  0  0  0  0  0  0  0  0  0
    7.0480   -1.1880   18.4280 H   0  0  0  0  0  0  0  0  0  0  0  0
    7.7460   -0.6030   21.4280 C   0  0  0  0  0  0  0  0  0  0  0  0
    7.9660   -1.5840   22.6050 C   0  0  2  0  0  0  0  0  0  0  0  0
    9.0280   -2.6440   22.2110 C   0  0  0  0  0  0  0  0  0  0  0  0
    9.4970   -3.4470   23.3100 N   0  0  0  0  0  0  0  0  0  0  0  0
   10.3200   -2.9420   24.2990 C   0  0  0  0  0  0  0  0  0  0  0  0
   10.7330   -3.6040   25.4900 C   0  0  0  0  0  0  0  0  0  0  0  0
   11.5070   -2.8180   26.2300 N   0  0  0  0  0  0  0  0  0  0  0  0
   11.6080   -1.6760   25.5500 N   0  0  0  0  0  0  0  0  0  0  0  0
   12.4620   -0.6130   26.0170 C   0  0  0  0  0  0  0  0  0  0  0  0
   13.4410   -0.6370   25.5220 H   0  0  0  0  0  0  0  0  0  0  0  0
   12.5990   -0.7680   27.0870 H   0  0  0  0  0  0  0  0  0  0  0  0
   11.9640    0.3370   25.8030 H   0  0  0  0  0  0  0  0  0  0  0  0
   10.9090   -1.6970   24.3820 C   0  0  0  0  0  0  0  0  0  0  0  0
   10.8890   -0.8260   23.7320 H   0  0  0  0  0  0  0  0  0  0  0  0
   10.5140   -4.6060   25.8540 H   0  0  0  0  0  0  0  0  0  0  0  0
    9.3440   -4.4390   23.3170 H   0  0  0  0  0  0  0  0  0  0  0  0
    8.6230   -3.3110   21.4430 H   0  0  0  0  0  0  0  0  0  0  0  0
    9.8880   -2.1110   21.7680 H   0  0  0  0  0  0  0  0  0  0  0  0
    8.3940   -1.0710   23.4760 H   0  0  0  0  0  0  0  0  0  0  0  0
    8.4660   -0.7570   20.6160 H   0  0  0  0  0  0  0  0  0  0  0  0
    7.8440    0.4480   21.7400 H   0  0  0  0  0  0  0  0  0  0  0  0
    5.9410   -1.4000   24.2160 C   0  0  0  0  0  0  0  0  0  0  0  0
    6.2510   -0.0590   24.4860 C   0  0  0  0  0  0  0  0  0  0  0  0
    5.6700    0.5860   25.5660 C   0  0  0  0  0  0  0  0  0  0  0  0
    6.0680    2.2500   25.8930 Cl  0  0  0  0  0  0  0  0  0  0  0  0
    4.7620   -0.0630   26.3980 C   0  0  0  0  0  0  0  0  0  0  0  0
    4.4200   -1.3710   26.1140 C   0  0  0  0  0  0  0  0  0  0  0  0
    4.9830   -2.0340   25.0260 C   0  0  0  0  0  0  0  0  0  0  0  0
    4.4890   -3.4180   24.7150 C   0  0  0  0  0  0  0  0  0  0  0  0
    3.5710   -3.9660   25.3250 O   0  0  0  0  0  0  0  0  0  0  0  0
    3.6920   -1.9110   26.7080 H   0  0  0  0  0  0  0  0  0  0  0  0
    4.3250    0.4670   27.2350 H   0  0  0  0  0  0  0  0  0  0  0  0
    6.9260    0.5180   23.8600 H   0  0  0  0  0  0  0  0  0  0  0  0
    6.6930   -4.1990   22.3710 H   0  0  0  0  0  0  0  0  0  0  0  0
    7.1640   -3.8850   24.0670 H   0  0  0  0  0  0  0  0  0  0  0  0
    3.4810   -5.2150   23.2800 H   0  0  0  0  0  0  0  0  0  0  0  0
    4.8000   -5.3000   22.0840 H   0  0  0  0  0  0  0  0  0  0  0  0
    3.6750   -6.5320   25.1910 H   0  0  0  0  0  0  0  0  0  0  0  0
    5.1230   -9.0150   24.8750 H   0  0  0  0  0  0  0  0  0  0  0  0
    4.3710   -8.4220   26.3860 H   0  0  0  0  0  0  0  0  0  0  0  0
    6.0450   -7.9560   25.9460 H   0  0  0  0  0  0  0  0  0  0  0  0
  1  2  1  0  0  0  0
  1 66  1  0  0  0  0
  1 67  1  0  0  0  0
  1 68  1  0  0  0  0
  2  3  1  0  0  0  0
  2 65  1  0  0  0  0
  3  4  2  0  0  0  0
  3  5  1  0  0  0  0
  5  6  1  0  0  0  0
  5 63  1  0  0  0  0
  5 64  1  0  0  0  0
  6  7  1  0  0  0  0
  6 56  1  0  0  0  0
  7  8  1  0  0  0  0
  7 61  1  0  0  0  0
  7 62  1  0  0  0  0
  8  9  1  6  0  0  0
  8 29  1  0  0  0  0
  8 49  1  0  0  0  0
  9 10  2  0  0  0  0
  9 11  1  0  0  0  0
 11 12  1  0  0  0  0
 11 28  1  0  0  0  0
 12 13  2  0  0  0  0
 12 21  1  0  0  0  0
 13 14  1  0  0  0  0
 13 27  1  0  0  0  0
 14 15  2  0  0  0  0
 15 16  1  0  0  0  0
 15 26  1  0  0  0  0
 16 17  2  0  0  0  0
 16 21  1  0  0  0  0
 17 18  1  0  0  0  0
 17 25  1  0  0  0  0
 18 19  2  0  0  0  0
 18 24  1  0  0  0  0
 19 20  1  0  0  0  0
 19 23  1  0  0  0  0
 20 21  2  0  0  0  0
 20 22  1  0  0  0  0
 28 29  1  0  0  0  0
 28 47  1  0  0  0  0
 28 48  1  0  0  0  0
 29 30  1  0  0  0  0
 29 46  1  1  0  0  0
 30 31  1  0  0  0  0
 30 44  1  0  0  0  0
 30 45  1  0  0  0  0
 31 32  1  0  0  0  0
 31 43  1  0  0  0  0
 32 33  1  0  0  0  0
 32 40  2  0  0  0  0
 33 34  2  0  0  0  0
 33 42  1  0  0  0  0
 34 35  1  0  0  0  0
 35 36  1  0  0  0  0
 35 40  1  0  0  0  0
 36 37  1  0  0  0  0
 36 38  1  0  0  0  0
 36 39  1  0  0  0  0
 40 41  1  0  0  0  0
 49 50  2  0  0  0  0
 49 55  1  0  0  0  0
 50 51  1  0  0  0  0
 50 60  1  0  0  0  0
 51 52  1  0  0  0  0
 51 53  2  0  0  0  0
 53 54  1  0  0  0  0
 53 59  1  0  0  0  0
 54 55  2  0  0  0  0
 54 58  1  0  0  0  0
 55 56  1  0  0  0  0
 56 57  2  0  0  0  0
M  END
>  <MODEL>
       3

$$$$
best_conformers_25.pdb
 OpenBabel02042510453D

 68 73  0  0  1  0  0  0  0  0999 V2000
    6.7710   -8.2550   24.2540 C   0  0  0  0  0  0  0  0  0  0  0  0
    6.2740   -7.1020   23.5270 N   0  0  0  0  0  0  0  0  0  0  0  0
    5.0560   -6.5910   23.8650 C   0  0  0  0  0  0  0  0  0  0  0  0
    4.3580   -7.1360   24.7050 O   0  0  0  0  0  0  0  0  0  0  0  0
    4.6270   -5.3130   23.1140 C   0  0  0  0  0  0  0  0  0  0  0  0
    5.1770   -4.0770   23.6390 N   0  0  0  0  0  0  0  0  0  0  0  0
    6.4960   -3.6540   23.2090 C   0  0  0  0  0  0  0  0  0  0  0  0
    6.5600   -2.1270   22.9790 C   0  0  2  0  0  0  0  0  0  0  0  0
    5.6870   -1.7430   21.7620 C   0  0  0  0  0  0  0  0  0  0  0  0
    4.5570   -2.1180   21.5360 O   0  0  0  0  0  0  0  0  0  0  0  0
    6.3950   -0.8690   20.9650 N   0  0  0  0  0  0  0  0  0  0  0  0
    5.8020   -0.2060   19.8570 C   0  0  0  0  0  0  0  0  0  0  0  0
    6.2530   -0.4590   18.5850 C   0  0  0  0  0  0  0  0  0  0  0  0
    5.7770    0.1320   17.4600 N   0  0  0  0  0  0  0  0  0  0  0  0
    4.8040    1.0020   17.6060 C   0  0  0  0  0  0  0  0  0  0  0  0
    4.2380    1.3650   18.8600 C   0  0  0  0  0  0  0  0  0  0  0  0
    3.1900    2.3240   18.9550 C   0  0  0  0  0  0  0  0  0  0  0  0
    2.6770    2.6710   20.1760 C   0  0  0  0  0  0  0  0  0  0  0  0
    3.1990    2.0850   21.3540 C   0  0  0  0  0  0  0  0  0  0  0  0
    4.2150    1.1610   21.2890 C   0  0  0  0  0  0  0  0  0  0  0  0
    4.7500    0.7570   20.0300 C   0  0  0  0  0  0  0  0  0  0  0  0
    4.6040    0.7250   22.2080 H   0  0  0  0  0  0  0  0  0  0  0  0
    2.7860    2.3690   22.3170 H   0  0  0  0  0  0  0  0  0  0  0  0
    1.8770    3.4030   20.2490 H   0  0  0  0  0  0  0  0  0  0  0  0
    2.8140    2.7790   18.0410 H   0  0  0  0  0  0  0  0  0  0  0  0
    4.4130    1.4620   16.6990 H   0  0  0  0  0  0  0  0  0  0  0  0
    7.0440   -1.1900   18.4250 H   0  0  0  0  0  0  0  0  0  0  0  0
    7.7550   -0.6240   21.4040 C   0  0  0  0  0  0  0  0  0  0  0  0
    7.9790   -1.6070   22.5780 C   0  0  2  0  0  0  0  0  0  0  0  0
    9.0290   -2.6810   22.1880 C   0  0  0  0  0  0  0  0  0  0  0  0
   10.3250   -2.1140   21.9160 N   0  0  0  0  0  0  0  0  0  0  0  0
   11.1680   -1.6660   22.9160 C   0  0  0  0  0  0  0  0  0  0  0  0
   12.4200   -1.0090   22.7570 C   0  0  0  0  0  0  0  0  0  0  0  0
   12.9610   -0.7140   23.9360 N   0  0  0  0  0  0  0  0  0  0  0  0
   12.0960   -1.1590   24.8470 N   0  0  0  0  0  0  0  0  0  0  0  0
   12.3870   -1.0840   26.2590 C   0  0  0  0  0  0  0  0  0  0  0  0
   11.4510   -0.8730   26.7830 H   0  0  0  0  0  0  0  0  0  0  0  0
   12.8140   -2.0230   26.6320 H   0  0  0  0  0  0  0  0  0  0  0  0
   13.1030   -0.2750   26.4130 H   0  0  0  0  0  0  0  0  0  0  0  0
   11.0000   -1.7410   24.2840 C   0  0  0  0  0  0  0  0  0  0  0  0
   10.2030   -2.1450   24.9010 H   0  0  0  0  0  0  0  0  0  0  0  0
   12.9590   -0.7370   21.8510 H   0  0  0  0  0  0  0  0  0  0  0  0
   10.6640   -2.0680   20.9660 H   0  0  0  0  0  0  0  0  0  0  0  0
    8.7050   -3.2160   21.2900 H   0  0  0  0  0  0  0  0  0  0  0  0
    9.1290   -3.4130   23.0030 H   0  0  0  0  0  0  0  0  0  0  0  0
    8.4210   -1.0930   23.4420 H   0  0  0  0  0  0  0  0  0  0  0  0
    8.4510   -0.8000   20.5760 H   0  0  0  0  0  0  0  0  0  0  0  0
    7.8920    0.4220   21.7160 H   0  0  0  0  0  0  0  0  0  0  0  0
    5.9870   -1.4450   24.2210 C   0  0  0  0  0  0  0  0  0  0  0  0
    6.2720   -0.1010   24.4940 C   0  0  0  0  0  0  0  0  0  0  0  0
    5.7070    0.5220   25.5930 C   0  0  0  0  0  0  0  0  0  0  0  0
    6.0870    2.1890   25.9210 Cl  0  0  0  0  0  0  0  0  0  0  0  0
    4.8340   -0.1510   26.4440 C   0  0  0  0  0  0  0  0  0  0  0  0
    4.5090   -1.4610   26.1520 C   0  0  0  0  0  0  0  0  0  0  0  0
    5.0590   -2.1000   25.0400 C   0  0  0  0  0  0  0  0  0  0  0  0
    4.5590   -3.4720   24.7000 C   0  0  0  0  0  0  0  0  0  0  0  0
    3.6420   -4.0040   25.3120 O   0  0  0  0  0  0  0  0  0  0  0  0
    3.8040   -2.0120   26.7620 H   0  0  0  0  0  0  0  0  0  0  0  0
    4.4100    0.3650   27.2980 H   0  0  0  0  0  0  0  0  0  0  0  0
    6.9110    0.4930   23.8480 H   0  0  0  0  0  0  0  0  0  0  0  0
    7.2400   -3.9380   23.9700 H   0  0  0  0  0  0  0  0  0  0  0  0
    6.7140   -4.1690   22.2720 H   0  0  0  0  0  0  0  0  0  0  0  0
    4.8980   -5.3580   22.0470 H   0  0  0  0  0  0  0  0  0  0  0  0
    3.5410   -5.2600   23.1890 H   0  0  0  0  0  0  0  0  0  0  0  0
    6.8230   -6.7060   22.7780 H   0  0  0  0  0  0  0  0  0  0  0  0
    6.8570   -8.0270   25.3270 H   0  0  0  0  0  0  0  0  0  0  0  0
    7.7540   -8.5100   23.8490 H   0  0  0  0  0  0  0  0  0  0  0  0
    6.0910   -9.1070   24.1450 H   0  0  0  0  0  0  0  0  0  0  0  0
  1  2  1  0  0  0  0
  1 66  1  0  0  0  0
  1 67  1  0  0  0  0
  1 68  1  0  0  0  0
  2  3  1  0  0  0  0
  2 65  1  0  0  0  0
  3  4  2  0  0  0  0
  3  5  1  0  0  0  0
  5  6  1  0  0  0  0
  5 63  1  0  0  0  0
  5 64  1  0  0  0  0
  6  7  1  0  0  0  0
  6 56  1  0  0  0  0
  7  8  1  0  0  0  0
  7 61  1  0  0  0  0
  7 62  1  0  0  0  0
  8  9  1  6  0  0  0
  8 29  1  0  0  0  0
  8 49  1  0  0  0  0
  9 10  2  0  0  0  0
  9 11  1  0  0  0  0
 11 12  1  0  0  0  0
 11 28  1  0  0  0  0
 12 13  2  0  0  0  0
 12 21  1  0  0  0  0
 13 14  1  0  0  0  0
 13 27  1  0  0  0  0
 14 15  2  0  0  0  0
 15 16  1  0  0  0  0
 15 26  1  0  0  0  0
 16 17  2  0  0  0  0
 16 21  1  0  0  0  0
 17 18  1  0  0  0  0
 17 25  1  0  0  0  0
 18 19  2  0  0  0  0
 18 24  1  0  0  0  0
 19 20  1  0  0  0  0
 19 23  1  0  0  0  0
 20 21  2  0  0  0  0
 20 22  1  0  0  0  0
 28 29  1  0  0  0  0
 28 47  1  0  0  0  0
 28 48  1  0  0  0  0
 29 30  1  0  0  0  0
 29 46  1  1  0  0  0
 30 31  1  0  0  0  0
 30 44  1  0  0  0  0
 30 45  1  0  0  0  0
 31 32  1  0  0  0  0
 31 43  1  0  0  0  0
 32 33  1  0  0  0  0
 32 40  2  0  0  0  0
 33 34  2  0  0  0  0
 33 42  1  0  0  0  0
 34 35  1  0  0  0  0
 35 36  1  0  0  0  0
 35 40  1  0  0  0  0
 36 37  1  0  0  0  0
 36 38  1  0  0  0  0
 36 39  1  0  0  0  0
 40 41  1  0  0  0  0
 49 50  2  0  0  0  0
 49 55  1  0  0  0  0
 50 51  1  0  0  0  0
 50 60  1  0  0  0  0
 51 52  1  0  0  0  0
 51 53  2  0  0  0  0
 53 54  1  0  0  0  0
 53 59  1  0  0  0  0
 54 55  2  0  0  0  0
 54 58  1  0  0  0  0
 55 56  1  0  0  0  0
 56 57  2  0  0  0  0
M  END
>  <MODEL>
       4

$$$$
