best_conformers_88.pdb
 OpenBabel02042510453D

 64 68  0  0  0  0  0  0  0  0999 V2000
    0.9980   -2.5300   27.0170 C   0  0  0  0  0  0  0  0  0  0  0  0
    1.9210   -3.4310   27.8460 C   0  0  0  0  0  0  0  0  0  0  0  0
    3.0850   -3.8930   26.9860 C   0  0  0  0  0  0  0  0  0  0  0  0
    4.1050   -3.2110   27.0310 O   0  0  0  0  0  0  0  0  0  0  0  0
    2.8950   -4.9030   26.0390 N   0  0  0  0  0  0  0  0  0  0  0  0
    1.8630   -5.9380   26.2580 C   0  0  0  0  0  0  0  0  0  0  0  0
    1.6060   -6.8200   25.0200 C   0  0  0  0  0  0  0  0  0  0  0  0
    2.9340   -7.2830   24.4090 C   0  0  0  0  0  0  0  0  0  0  0  0
    3.7450   -6.0600   24.0480 C   0  0  0  0  0  0  0  0  0  0  0  0
    4.5160   -6.0200   22.8720 C   0  0  0  0  0  0  0  0  0  0  0  0
    5.1700   -4.8370   22.5020 C   0  0  0  0  0  0  0  0  0  0  0  0
    5.1030   -3.7010   23.3110 C   0  0  0  0  0  0  0  0  0  0  0  0
    5.6840   -2.5010   22.8880 N   0  0  0  0  0  0  0  0  0  0  0  0
    6.5110   -1.7120   23.8160 C   0  0  0  0  0  0  0  0  0  0  0  0
    7.9780   -1.8850   23.4920 C   0  0  0  0  0  0  0  0  0  0  0  0
    8.5240   -3.1660   23.6420 C   0  0  0  0  0  0  0  0  0  0  0  0
    9.8910   -3.3850   23.4400 C   0  0  0  0  0  0  0  0  0  0  0  0
   10.7260   -2.3350   23.0600 C   0  0  0  0  0  0  0  0  0  0  0  0
   10.1970   -1.0510   22.8720 C   0  0  0  0  0  0  0  0  0  0  0  0
   11.3350    0.3730   22.2960 Br  0  0  0  0  0  0  0  0  0  0  0  0
    8.8290   -0.8330   23.0900 C   0  0  0  0  0  0  0  0  0  0  0  0
    8.4530    0.1730   22.9500 H   0  0  0  0  0  0  0  0  0  0  0  0
   11.7840   -2.5410   22.9090 H   0  0  0  0  0  0  0  0  0  0  0  0
   10.3220   -4.3690   23.5690 H   0  0  0  0  0  0  0  0  0  0  0  0
    7.8750   -3.9850   23.9480 H   0  0  0  0  0  0  0  0  0  0  0  0
    6.3530   -2.0510   24.8480 H   0  0  0  0  0  0  0  0  0  0  0  0
    6.2320   -0.6570   23.7880 H   0  0  0  0  0  0  0  0  0  0  0  0
    5.5630   -2.1360   21.5500 C   0  0  0  0  0  0  0  0  0  0  0  0
    4.8790   -2.8010   20.7700 O   0  0  0  0  0  0  0  0  0  0  0  0
    6.3620   -0.9310   21.0410 C   0  0  0  0  0  0  0  0  0  0  0  0
    5.7880   -0.2180   19.8200 C   0  0  0  0  0  0  0  0  0  0  0  0
    6.3090   -0.4500   18.5320 C   0  0  0  0  0  0  0  0  0  0  0  0
    5.8470    0.1460   17.4170 N   0  0  0  0  0  0  0  0  0  0  0  0
    4.8240    1.0150   17.5540 C   0  0  0  0  0  0  0  0  0  0  0  0
    4.2520    1.3360   18.7960 C   0  0  0  0  0  0  0  0  0  0  0  0
    3.2100    2.2760   18.9060 C   0  0  0  0  0  0  0  0  0  0  0  0
    2.6790    2.5970   20.1620 C   0  0  0  0  0  0  0  0  0  0  0  0
    3.1820    1.9890   21.3160 C   0  0  0  0  0  0  0  0  0  0  0  0
    4.2100    1.0480   21.2100 C   0  0  0  0  0  0  0  0  0  0  0  0
    4.7480    0.7120   19.9560 C   0  0  0  0  0  0  0  0  0  0  0  0
    4.5990    0.5880   22.1140 H   0  0  0  0  0  0  0  0  0  0  0  0
    2.7830    2.2470   22.2950 H   0  0  0  0  0  0  0  0  0  0  0  0
    1.8790    3.3280   20.2450 H   0  0  0  0  0  0  0  0  0  0  0  0
    2.8200    2.7760   18.0240 H   0  0  0  0  0  0  0  0  0  0  0  0
    4.4360    1.4970   16.6590 H   0  0  0  0  0  0  0  0  0  0  0  0
    7.1390   -1.1450   18.4360 H   0  0  0  0  0  0  0  0  0  0  0  0
    7.3780   -1.2800   20.8320 H   0  0  0  0  0  0  0  0  0  0  0  0
    6.4070   -0.2150   21.8660 H   0  0  0  0  0  0  0  0  0  0  0  0
    4.3900   -3.7660   24.5010 C   0  0  0  0  0  0  0  0  0  0  0  0
    3.6970   -4.9250   24.8820 C   0  0  0  0  0  0  0  0  0  0  0  0
    4.3280   -2.8660   25.0970 H   0  0  0  0  0  0  0  0  0  0  0  0
    5.7430   -4.7900   21.5810 H   0  0  0  0  0  0  0  0  0  0  0  0
    4.5980   -6.9010   22.2410 H   0  0  0  0  0  0  0  0  0  0  0  0
    3.4890   -7.8950   25.1300 H   0  0  0  0  0  0  0  0  0  0  0  0
    2.7380   -7.8920   23.5190 H   0  0  0  0  0  0  0  0  0  0  0  0
    1.0360   -6.2530   24.2720 H   0  0  0  0  0  0  0  0  0  0  0  0
    1.0100   -7.6950   25.3020 H   0  0  0  0  0  0  0  0  0  0  0  0
    2.1890   -6.5870   27.0810 H   0  0  0  0  0  0  0  0  0  0  0  0
    0.9090   -5.4800   26.5470 H   0  0  0  0  0  0  0  0  0  0  0  0
    1.3850   -4.3090   28.2120 H   0  0  0  0  0  0  0  0  0  0  0  0
    2.3040   -2.8690   28.7030 H   0  0  0  0  0  0  0  0  0  0  0  0
    1.5610   -1.7050   26.5630 H   0  0  0  0  0  0  0  0  0  0  0  0
    0.5280   -3.1090   26.2150 H   0  0  0  0  0  0  0  0  0  0  0  0
    0.2160   -2.1020   27.6510 H   0  0  0  0  0  0  0  0  0  0  0  0
  1  2  1  0  0  0  0
  1 62  1  0  0  0  0
  1 63  1  0  0  0  0
  1 64  1  0  0  0  0
  2  3  1  0  0  0  0
  2 60  1  0  0  0  0
  2 61  1  0  0  0  0
  3  4  2  0  0  0  0
  3  5  1  0  0  0  0
  5  6  1  0  0  0  0
  5 50  1  0  0  0  0
  6  7  1  0  0  0  0
  6 58  1  0  0  0  0
  6 59  1  0  0  0  0
  7  8  1  0  0  0  0
  7 56  1  0  0  0  0
  7 57  1  0  0  0  0
  8  9  1  0  0  0  0
  8 54  1  0  0  0  0
  8 55  1  0  0  0  0
  9 10  2  0  0  0  0
  9 50  1  0  0  0  0
 10 11  1  0  0  0  0
 10 53  1  0  0  0  0
 11 12  2  0  0  0  0
 11 52  1  0  0  0  0
 12 13  1  0  0  0  0
 12 49  1  0  0  0  0
 13 14  1  0  0  0  0
 13 28  1  0  0  0  0
 14 15  1  0  0  0  0
 14 26  1  0  0  0  0
 14 27  1  0  0  0  0
 15 16  2  0  0  0  0
 15 21  1  0  0  0  0
 16 17  1  0  0  0  0
 16 25  1  0  0  0  0
 17 18  2  0  0  0  0
 17 24  1  0  0  0  0
 18 19  1  0  0  0  0
 18 23  1  0  0  0  0
 19 20  1  0  0  0  0
 19 21  2  0  0  0  0
 21 22  1  0  0  0  0
 28 29  2  0  0  0  0
 28 30  1  0  0  0  0
 30 31  1  0  0  0  0
 30 47  1  0  0  0  0
 30 48  1  0  0  0  0
 31 32  2  0  0  0  0
 31 40  1  0  0  0  0
 32 33  1  0  0  0  0
 32 46  1  0  0  0  0
 33 34  2  0  0  0  0
 34 35  1  0  0  0  0
 34 45  1  0  0  0  0
 35 36  2  0  0  0  0
 35 40  1  0  0  0  0
 36 37  1  0  0  0  0
 36 44  1  0  0  0  0
 37 38  2  0  0  0  0
 37 43  1  0  0  0  0
 38 39  1  0  0  0  0
 38 42  1  0  0  0  0
 39 40  2  0  0  0  0
 39 41  1  0  0  0  0
 49 50  2  0  0  0  0
 49 51  1  0  0  0  0
M  END
>  <MODEL>
       1

$$$$
best_conformers_88.pdb
 OpenBabel02042510453D

 64 68  0  0  0  0  0  0  0  0999 V2000
    9.9810   -5.9760   25.2830 C   0  0  0  0  0  0  0  0  0  0  0  0
    8.8440   -5.4520   24.3810 C   0  0  0  0  0  0  0  0  0  0  0  0
    8.3360   -4.0530   24.7280 C   0  0  0  0  0  0  0  0  0  0  0  0
    9.0930   -3.0990   24.6020 O   0  0  0  0  0  0  0  0  0  0  0  0
    6.9830   -3.8530   24.9600 N   0  0  0  0  0  0  0  0  0  0  0  0
    6.1220   -4.9530   25.3600 C   0  0  0  0  0  0  0  0  0  0  0  0
    5.5780   -4.6050   26.7410 C   0  0  0  0  0  0  0  0  0  0  0  0
    4.6820   -3.3560   26.6440 C   0  0  0  0  0  0  0  0  0  0  0  0
    5.3010   -2.2800   25.7580 C   0  0  0  0  0  0  0  0  0  0  0  0
    4.7460   -0.9890   25.6780 C   0  0  0  0  0  0  0  0  0  0  0  0
    5.2930   -0.0320   24.8020 C   0  0  0  0  0  0  0  0  0  0  0  0
    6.3830   -0.3640   23.9850 C   0  0  0  0  0  0  0  0  0  0  0  0
    7.0360    0.5370   23.1490 N   0  0  0  0  0  0  0  0  0  0  0  0
    7.9130    1.5150   23.7950 C   0  0  0  0  0  0  0  0  0  0  0  0
    9.2400    0.8760   24.1520 C   0  0  0  0  0  0  0  0  0  0  0  0
   10.4250    1.3700   23.5860 C   0  0  0  0  0  0  0  0  0  0  0  0
   11.6680    0.7980   23.8890 C   0  0  0  0  0  0  0  0  0  0  0  0
   11.7400   -0.2460   24.8250 C   0  0  0  0  0  0  0  0  0  0  0  0
   10.5650   -0.7390   25.4230 C   0  0  0  0  0  0  0  0  0  0  0  0
   10.6120   -2.1540   26.7160 Br  0  0  0  0  0  0  0  0  0  0  0  0
    9.3240   -0.1920   25.0650 C   0  0  0  0  0  0  0  0  0  0  0  0
    8.4230   -0.5910   25.5230 H   0  0  0  0  0  0  0  0  0  0  0  0
   12.7070   -0.6670   25.0950 H   0  0  0  0  0  0  0  0  0  0  0  0
   12.5670    1.1760   23.4020 H   0  0  0  0  0  0  0  0  0  0  0  0
   10.3900    2.2100   22.8990 H   0  0  0  0  0  0  0  0  0  0  0  0
    7.4390    1.9110   24.6980 H   0  0  0  0  0  0  0  0  0  0  0  0
    8.0820    2.3640   23.1220 H   0  0  0  0  0  0  0  0  0  0  0  0
    7.2850    0.1950   21.8150 C   0  0  0  0  0  0  0  0  0  0  0  0
    8.1070    0.8320   21.1650 O   0  0  0  0  0  0  0  0  0  0  0  0
    6.4410   -0.8460   21.0460 C   0  0  0  0  0  0  0  0  0  0  0  0
    5.8140   -0.2400   19.7870 C   0  0  0  0  0  0  0  0  0  0  0  0
    6.2930   -0.5220   18.4910 C   0  0  0  0  0  0  0  0  0  0  0  0
    5.8070    0.0540   17.3720 N   0  0  0  0  0  0  0  0  0  0  0  0
    4.8020    0.9430   17.5150 C   0  0  0  0  0  0  0  0  0  0  0  0
    4.2530    1.2900   18.7590 C   0  0  0  0  0  0  0  0  0  0  0  0
    3.2240    2.2440   18.8780 C   0  0  0  0  0  0  0  0  0  0  0  0
    2.7240    2.5810   20.1440 C   0  0  0  0  0  0  0  0  0  0  0  0
    3.2450    1.9780   21.2920 C   0  0  0  0  0  0  0  0  0  0  0  0
    4.2650    1.0320   21.1740 C   0  0  0  0  0  0  0  0  0  0  0  0
    4.7720    0.6820   19.9160 C   0  0  0  0  0  0  0  0  0  0  0  0
    4.6820    0.5690   22.0640 H   0  0  0  0  0  0  0  0  0  0  0  0
    2.8660    2.2480   22.2750 H   0  0  0  0  0  0  0  0  0  0  0  0
    1.9380    3.3240   20.2420 H   0  0  0  0  0  0  0  0  0  0  0  0
    2.8180    2.7410   17.9980 H   0  0  0  0  0  0  0  0  0  0  0  0
    4.4050    1.4170   16.6220 H   0  0  0  0  0  0  0  0  0  0  0  0
    7.1200   -1.2180   18.3890 H   0  0  0  0  0  0  0  0  0  0  0  0
    7.0730   -1.6970   20.7780 H   0  0  0  0  0  0  0  0  0  0  0  0
    5.6370   -1.2070   21.6970 H   0  0  0  0  0  0  0  0  0  0  0  0
    6.9190   -1.6380   24.0580 C   0  0  0  0  0  0  0  0  0  0  0  0
    6.4080   -2.5830   24.9410 C   0  0  0  0  0  0  0  0  0  0  0  0
    7.7700   -1.8940   23.4360 H   0  0  0  0  0  0  0  0  0  0  0  0
    4.8850    0.9730   24.7450 H   0  0  0  0  0  0  0  0  0  0  0  0
    3.8920   -0.7240   26.2950 H   0  0  0  0  0  0  0  0  0  0  0  0
    4.5030   -2.9570   27.6480 H   0  0  0  0  0  0  0  0  0  0  0  0
    3.7110   -3.6520   26.2290 H   0  0  0  0  0  0  0  0  0  0  0  0
    5.0090   -5.4530   27.1290 H   0  0  0  0  0  0  0  0  0  0  0  0
    6.4100   -4.4180   27.4290 H   0  0  0  0  0  0  0  0  0  0  0  0
    6.6630   -5.9020   25.3990 H   0  0  0  0  0  0  0  0  0  0  0  0
    5.3060   -5.0520   24.6380 H   0  0  0  0  0  0  0  0  0  0  0  0
    8.0210   -6.1660   24.3880 H   0  0  0  0  0  0  0  0  0  0  0  0
    9.1620   -5.3770   23.3540 H   0  0  0  0  0  0  0  0  0  0  0  0
   10.0840   -7.0640   25.1590 H   0  0  0  0  0  0  0  0  0  0  0  0
   10.9420   -5.5110   25.0360 H   0  0  0  0  0  0  0  0  0  0  0  0
    9.7530   -5.7560   26.3340 H   0  0  0  0  0  0  0  0  0  0  0  0
  1  2  1  0  0  0  0
  1 62  1  0  0  0  0
  1 63  1  0  0  0  0
  1 64  1  0  0  0  0
  2  3  1  0  0  0  0
  2 60  1  0  0  0  0
  2 61  1  0  0  0  0
  3  4  2  0  0  0  0
  3  5  1  0  0  0  0
  5  6  1  0  0  0  0
  5 50  1  0  0  0  0
  6  7  1  0  0  0  0
  6 58  1  0  0  0  0
  6 59  1  0  0  0  0
  7  8  1  0  0  0  0
  7 56  1  0  0  0  0
  7 57  1  0  0  0  0
  8  9  1  0  0  0  0
  8 54  1  0  0  0  0
  8 55  1  0  0  0  0
  9 10  2  0  0  0  0
  9 50  1  0  0  0  0
 10 11  1  0  0  0  0
 10 53  1  0  0  0  0
 11 12  2  0  0  0  0
 11 52  1  0  0  0  0
 12 13  1  0  0  0  0
 12 49  1  0  0  0  0
 13 14  1  0  0  0  0
 13 28  1  0  0  0  0
 14 15  1  0  0  0  0
 14 26  1  0  0  0  0
 14 27  1  0  0  0  0
 15 16  2  0  0  0  0
 15 21  1  0  0  0  0
 16 17  1  0  0  0  0
 16 25  1  0  0  0  0
 17 18  2  0  0  0  0
 17 24  1  0  0  0  0
 18 19  1  0  0  0  0
 18 23  1  0  0  0  0
 19 20  1  0  0  0  0
 19 21  2  0  0  0  0
 21 22  1  0  0  0  0
 28 29  2  0  0  0  0
 28 30  1  0  0  0  0
 30 31  1  0  0  0  0
 30 47  1  0  0  0  0
 30 48  1  0  0  0  0
 31 32  2  0  0  0  0
 31 40  1  0  0  0  0
 32 33  1  0  0  0  0
 32 46  1  0  0  0  0
 33 34  2  0  0  0  0
 34 35  1  0  0  0  0
 34 45  1  0  0  0  0
 35 36  2  0  0  0  0
 35 40  1  0  0  0  0
 36 37  1  0  0  0  0
 36 44  1  0  0  0  0
 37 38  2  0  0  0  0
 37 43  1  0  0  0  0
 38 39  1  0  0  0  0
 38 42  1  0  0  0  0
 39 40  2  0  0  0  0
 39 41  1  0  0  0  0
 49 50  2  0  0  0  0
 49 51  1  0  0  0  0
M  END
>  <MODEL>
       2

$$$$
best_conformers_88.pdb
 OpenBabel02042510453D

 64 68  0  0  0  0  0  0  0  0999 V2000
    8.7680   -6.9550   24.0030 C   0  0  0  0  0  0  0  0  0  0  0  0
    8.8890   -5.4770   24.4090 C   0  0  0  0  0  0  0  0  0  0  0  0
    7.8120   -4.5360   23.8690 C   0  0  0  0  0  0  0  0  0  0  0  0
    7.9310   -4.0470   22.7510 O   0  0  0  0  0  0  0  0  0  0  0  0
    6.9260   -4.0430   24.8170 N   0  0  0  0  0  0  0  0  0  0  0  0
    6.6680   -4.8970   25.9640 C   0  0  0  0  0  0  0  0  0  0  0  0
    5.2200   -4.7670   26.4040 C   0  0  0  0  0  0  0  0  0  0  0  0
    4.9230   -3.3120   26.7880 C   0  0  0  0  0  0  0  0  0  0  0  0
    5.4370   -2.3430   25.7390 C   0  0  0  0  0  0  0  0  0  0  0  0
    4.9730   -1.0180   25.7210 C   0  0  0  0  0  0  0  0  0  0  0  0
    5.5180   -0.0970   24.8190 C   0  0  0  0  0  0  0  0  0  0  0  0
    6.5120   -0.4870   23.9270 C   0  0  0  0  0  0  0  0  0  0  0  0
    7.1440    0.4340   23.1040 N   0  0  0  0  0  0  0  0  0  0  0  0
    7.9020    1.4810   23.7690 C   0  0  0  0  0  0  0  0  0  0  0  0
    9.2130    0.9080   24.2280 C   0  0  0  0  0  0  0  0  0  0  0  0
    9.2920    0.0490   25.3350 C   0  0  0  0  0  0  0  0  0  0  0  0
   10.5320   -0.4060   25.7870 C   0  0  0  0  0  0  0  0  0  0  0  0
   11.6990   -0.0180   25.1170 C   0  0  0  0  0  0  0  0  0  0  0  0
   11.6280    0.8080   23.9910 C   0  0  0  0  0  0  0  0  0  0  0  0
   13.2040    1.2970   23.0260 Br  0  0  0  0  0  0  0  0  0  0  0  0
   10.3810    1.2330   23.5350 C   0  0  0  0  0  0  0  0  0  0  0  0
   10.3150    1.8250   22.6300 H   0  0  0  0  0  0  0  0  0  0  0  0
   12.6630   -0.3710   25.4630 H   0  0  0  0  0  0  0  0  0  0  0  0
   10.5910   -1.0410   26.6660 H   0  0  0  0  0  0  0  0  0  0  0  0
    8.3930   -0.2500   25.8630 H   0  0  0  0  0  0  0  0  0  0  0  0
    7.3480    1.8680   24.6280 H   0  0  0  0  0  0  0  0  0  0  0  0
    8.0620    2.3300   23.0960 H   0  0  0  0  0  0  0  0  0  0  0  0
    7.3610    0.1490   21.7640 C   0  0  0  0  0  0  0  0  0  0  0  0
    8.1720    0.8070   21.1180 O   0  0  0  0  0  0  0  0  0  0  0  0
    6.4570   -0.8420   21.0220 C   0  0  0  0  0  0  0  0  0  0  0  0
    5.8040   -0.2000   19.8020 C   0  0  0  0  0  0  0  0  0  0  0  0
    6.2710   -0.4770   18.5030 C   0  0  0  0  0  0  0  0  0  0  0  0
    5.7800    0.1030   17.3920 N   0  0  0  0  0  0  0  0  0  0  0  0
    4.7810    0.9960   17.5470 C   0  0  0  0  0  0  0  0  0  0  0  0
    4.2430    1.3390   18.7960 C   0  0  0  0  0  0  0  0  0  0  0  0
    3.2110    2.2860   18.9110 C   0  0  0  0  0  0  0  0  0  0  0  0
    2.6990    2.6190   20.1710 C   0  0  0  0  0  0  0  0  0  0  0  0
    3.2140    2.0140   21.3220 C   0  0  0  0  0  0  0  0  0  0  0  0
    4.2470    1.0750   21.2110 C   0  0  0  0  0  0  0  0  0  0  0  0
    4.7640    0.7290   19.9510 C   0  0  0  0  0  0  0  0  0  0  0  0
    4.6520    0.6190   22.1110 H   0  0  0  0  0  0  0  0  0  0  0  0
    2.8150    2.2750   22.2980 H   0  0  0  0  0  0  0  0  0  0  0  0
    1.9020    3.3530   20.2540 H   0  0  0  0  0  0  0  0  0  0  0  0
    2.8100    2.7770   18.0270 H   0  0  0  0  0  0  0  0  0  0  0  0
    4.3720    1.4720   16.6610 H   0  0  0  0  0  0  0  0  0  0  0  0
    7.0910   -1.1820   18.4000 H   0  0  0  0  0  0  0  0  0  0  0  0
    7.0620   -1.7060   20.7370 H   0  0  0  0  0  0  0  0  0  0  0  0
    5.6740   -1.1830   21.7080 H   0  0  0  0  0  0  0  0  0  0  0  0
    6.9510   -1.8020   23.9250 C   0  0  0  0  0  0  0  0  0  0  0  0
    6.4170   -2.7380   24.8050 C   0  0  0  0  0  0  0  0  0  0  0  0
    7.7680   -2.0780   23.2750 H   0  0  0  0  0  0  0  0  0  0  0  0
    5.1720    0.9300   24.8080 H   0  0  0  0  0  0  0  0  0  0  0  0
    4.2030   -0.7020   26.4180 H   0  0  0  0  0  0  0  0  0  0  0  0
    5.3890   -3.0820   27.7570 H   0  0  0  0  0  0  0  0  0  0  0  0
    3.8420   -3.1940   26.8970 H   0  0  0  0  0  0  0  0  0  0  0  0
    4.5970   -5.0680   25.5570 H   0  0  0  0  0  0  0  0  0  0  0  0
    5.0000   -5.4350   27.2470 H   0  0  0  0  0  0  0  0  0  0  0  0
    6.8610   -5.9310   25.6650 H   0  0  0  0  0  0  0  0  0  0  0  0
    7.3420   -4.6580   26.7910 H   0  0  0  0  0  0  0  0  0  0  0  0
    9.8430   -5.0490   24.1100 H   0  0  0  0  0  0  0  0  0  0  0  0
    8.8640   -5.4400   25.5020 H   0  0  0  0  0  0  0  0  0  0  0  0
    9.7210   -7.4560   24.2060 H   0  0  0  0  0  0  0  0  0  0  0  0
    7.9930   -7.4530   24.5930 H   0  0  0  0  0  0  0  0  0  0  0  0
    8.5240   -7.0830   22.9450 H   0  0  0  0  0  0  0  0  0  0  0  0
  1  2  1  0  0  0  0
  1 62  1  0  0  0  0
  1 63  1  0  0  0  0
  1 64  1  0  0  0  0
  2  3  1  0  0  0  0
  2 60  1  0  0  0  0
  2 61  1  0  0  0  0
  3  4  2  0  0  0  0
  3  5  1  0  0  0  0
  5  6  1  0  0  0  0
  5 50  1  0  0  0  0
  6  7  1  0  0  0  0
  6 58  1  0  0  0  0
  6 59  1  0  0  0  0
  7  8  1  0  0  0  0
  7 56  1  0  0  0  0
  7 57  1  0  0  0  0
  8  9  1  0  0  0  0
  8 54  1  0  0  0  0
  8 55  1  0  0  0  0
  9 10  2  0  0  0  0
  9 50  1  0  0  0  0
 10 11  1  0  0  0  0
 10 53  1  0  0  0  0
 11 12  2  0  0  0  0
 11 52  1  0  0  0  0
 12 13  1  0  0  0  0
 12 49  1  0  0  0  0
 13 14  1  0  0  0  0
 13 28  1  0  0  0  0
 14 15  1  0  0  0  0
 14 26  1  0  0  0  0
 14 27  1  0  0  0  0
 15 16  2  0  0  0  0
 15 21  1  0  0  0  0
 16 17  1  0  0  0  0
 16 25  1  0  0  0  0
 17 18  2  0  0  0  0
 17 24  1  0  0  0  0
 18 19  1  0  0  0  0
 18 23  1  0  0  0  0
 19 20  1  0  0  0  0
 19 21  2  0  0  0  0
 21 22  1  0  0  0  0
 28 29  2  0  0  0  0
 28 30  1  0  0  0  0
 30 31  1  0  0  0  0
 30 47  1  0  0  0  0
 30 48  1  0  0  0  0
 31 32  2  0  0  0  0
 31 40  1  0  0  0  0
 32 33  1  0  0  0  0
 32 46  1  0  0  0  0
 33 34  2  0  0  0  0
 34 35  1  0  0  0  0
 34 45  1  0  0  0  0
 35 36  2  0  0  0  0
 35 40  1  0  0  0  0
 36 37  1  0  0  0  0
 36 44  1  0  0  0  0
 37 38  2  0  0  0  0
 37 43  1  0  0  0  0
 38 39  1  0  0  0  0
 38 42  1  0  0  0  0
 39 40  2  0  0  0  0
 39 41  1  0  0  0  0
 49 50  2  0  0  0  0
 49 51  1  0  0  0  0
M  END
>  <MODEL>
       3

$$$$
best_conformers_88.pdb
 OpenBabel02042510453D

 64 68  0  0  0  0  0  0  0  0999 V2000
    4.6970   -4.9220   27.9750 C   0  0  0  0  0  0  0  0  0  0  0  0
    3.2020   -5.1680   27.7250 C   0  0  0  0  0  0  0  0  0  0  0  0
    2.9180   -4.9280   26.2530 C   0  0  0  0  0  0  0  0  0  0  0  0
    2.7550   -3.7730   25.8770 O   0  0  0  0  0  0  0  0  0  0  0  0
    3.2490   -5.9350   25.3600 N   0  0  0  0  0  0  0  0  0  0  0  0
    2.9730   -7.3310   25.7170 C   0  0  0  0  0  0  0  0  0  0  0  0
    2.4810   -8.0500   24.4660 C   0  0  0  0  0  0  0  0  0  0  0  0
    3.5940   -8.0180   23.4320 C   0  0  0  0  0  0  0  0  0  0  0  0
    4.1530   -6.6340   23.2180 C   0  0  0  0  0  0  0  0  0  0  0  0
    4.8980   -6.3570   22.0670 C   0  0  0  0  0  0  0  0  0  0  0  0
    5.4680   -5.0920   21.8950 C   0  0  0  0  0  0  0  0  0  0  0  0
    5.3270   -4.1060   22.8700 C   0  0  0  0  0  0  0  0  0  0  0  0
    5.8930   -2.8440   22.6280 N   0  0  0  0  0  0  0  0  0  0  0  0
    6.7200   -2.1920   23.6550 C   0  0  0  0  0  0  0  0  0  0  0  0
    8.2090   -2.2670   23.3810 C   0  0  0  0  0  0  0  0  0  0  0  0
    8.9130   -3.4240   23.7490 C   0  0  0  0  0  0  0  0  0  0  0  0
   10.3000   -3.4860   23.6240 C   0  0  0  0  0  0  0  0  0  0  0  0
   10.9950   -2.3980   23.0930 C   0  0  0  0  0  0  0  0  0  0  0  0
   10.3050   -1.2590   22.6710 C   0  0  0  0  0  0  0  0  0  0  0  0
   11.2560    0.2080   21.9150 Br  0  0  0  0  0  0  0  0  0  0  0  0
    8.9170   -1.1820   22.8270 C   0  0  0  0  0  0  0  0  0  0  0  0
    8.4070   -0.2540   22.5760 H   0  0  0  0  0  0  0  0  0  0  0  0
   12.0680   -2.4410   22.9900 H   0  0  0  0  0  0  0  0  0  0  0  0
   10.8410   -4.3600   23.9580 H   0  0  0  0  0  0  0  0  0  0  0  0
    8.3770   -4.2710   24.1690 H   0  0  0  0  0  0  0  0  0  0  0  0
    6.5400   -2.6830   24.6170 H   0  0  0  0  0  0  0  0  0  0  0  0
    6.4160   -1.1470   23.7740 H   0  0  0  0  0  0  0  0  0  0  0  0
    5.6620   -2.2520   21.3890 C   0  0  0  0  0  0  0  0  0  0  0  0
    4.9250   -2.7930   20.5620 O   0  0  0  0  0  0  0  0  0  0  0  0
    6.3720   -0.9420   21.0210 C   0  0  0  0  0  0  0  0  0  0  0  0
    5.7980   -0.2030   19.8130 C   0  0  0  0  0  0  0  0  0  0  0  0
    6.3070   -0.4380   18.5200 C   0  0  0  0  0  0  0  0  0  0  0  0
    5.8390    0.1610   17.4110 N   0  0  0  0  0  0  0  0  0  0  0  0
    4.8200    1.0310   17.5590 C   0  0  0  0  0  0  0  0  0  0  0  0
    4.2530    1.3480   18.8000 C   0  0  0  0  0  0  0  0  0  0  0  0
    3.2090    2.2840   18.9070 C   0  0  0  0  0  0  0  0  0  0  0  0
    2.6720    2.5950   20.1610 C   0  0  0  0  0  0  0  0  0  0  0  0
    3.1710    1.9780   21.3110 C   0  0  0  0  0  0  0  0  0  0  0  0
    4.2050    1.0420   21.2050 C   0  0  0  0  0  0  0  0  0  0  0  0
    4.7530    0.7210   19.9540 C   0  0  0  0  0  0  0  0  0  0  0  0
    4.5910    0.5710   22.1020 H   0  0  0  0  0  0  0  0  0  0  0  0
    2.7600    2.2310   22.2840 H   0  0  0  0  0  0  0  0  0  0  0  0
    1.8720    3.3240   20.2430 H   0  0  0  0  0  0  0  0  0  0  0  0
    2.8160    2.7810   18.0240 H   0  0  0  0  0  0  0  0  0  0  0  0
    4.4260    1.5160   16.6720 H   0  0  0  0  0  0  0  0  0  0  0  0
    7.1210   -1.1510   18.4140 H   0  0  0  0  0  0  0  0  0  0  0  0
    6.3430   -0.2850   21.8940 H   0  0  0  0  0  0  0  0  0  0  0  0
    7.4180   -1.1890   20.8420 H   0  0  0  0  0  0  0  0  0  0  0  0
    4.5920   -4.3880   24.0190 C   0  0  0  0  0  0  0  0  0  0  0  0
    3.9810   -5.6430   24.1980 C   0  0  0  0  0  0  0  0  0  0  0  0
    4.4760   -3.6240   24.7770 H   0  0  0  0  0  0  0  0  0  0  0  0
    6.0440   -4.8590   21.0090 H   0  0  0  0  0  0  0  0  0  0  0  0
    5.0440   -7.1240   21.3120 H   0  0  0  0  0  0  0  0  0  0  0  0
    4.4020   -8.6510   23.8100 H   0  0  0  0  0  0  0  0  0  0  0  0
    3.2170   -8.4170   22.4840 H   0  0  0  0  0  0  0  0  0  0  0  0
    1.5890   -7.5560   24.0730 H   0  0  0  0  0  0  0  0  0  0  0  0
    2.2210   -9.0880   24.6940 H   0  0  0  0  0  0  0  0  0  0  0  0
    2.2040   -7.4060   26.4920 H   0  0  0  0  0  0  0  0  0  0  0  0
    3.8760   -7.8170   26.0990 H   0  0  0  0  0  0  0  0  0  0  0  0
    2.9400   -6.1960   27.9880 H   0  0  0  0  0  0  0  0  0  0  0  0
    2.5920   -4.4930   28.3310 H   0  0  0  0  0  0  0  0  0  0  0  0
    5.2970   -5.6350   27.3990 H   0  0  0  0  0  0  0  0  0  0  0  0
    4.9740   -3.9110   27.6590 H   0  0  0  0  0  0  0  0  0  0  0  0
    4.9400   -5.0350   29.0340 H   0  0  0  0  0  0  0  0  0  0  0  0
  1  2  1  0  0  0  0
  1 62  1  0  0  0  0
  1 63  1  0  0  0  0
  1 64  1  0  0  0  0
  2  3  1  0  0  0  0
  2 60  1  0  0  0  0
  2 61  1  0  0  0  0
  3  4  2  0  0  0  0
  3  5  1  0  0  0  0
  5  6  1  0  0  0  0
  5 50  1  0  0  0  0
  6  7  1  0  0  0  0
  6 58  1  0  0  0  0
  6 59  1  0  0  0  0
  7  8  1  0  0  0  0
  7 56  1  0  0  0  0
  7 57  1  0  0  0  0
  8  9  1  0  0  0  0
  8 54  1  0  0  0  0
  8 55  1  0  0  0  0
  9 10  2  0  0  0  0
  9 50  1  0  0  0  0
 10 11  1  0  0  0  0
 10 53  1  0  0  0  0
 11 12  2  0  0  0  0
 11 52  1  0  0  0  0
 12 13  1  0  0  0  0
 12 49  1  0  0  0  0
 13 14  1  0  0  0  0
 13 28  1  0  0  0  0
 14 15  1  0  0  0  0
 14 26  1  0  0  0  0
 14 27  1  0  0  0  0
 15 16  2  0  0  0  0
 15 21  1  0  0  0  0
 16 17  1  0  0  0  0
 16 25  1  0  0  0  0
 17 18  2  0  0  0  0
 17 24  1  0  0  0  0
 18 19  1  0  0  0  0
 18 23  1  0  0  0  0
 19 20  1  0  0  0  0
 19 21  2  0  0  0  0
 21 22  1  0  0  0  0
 28 29  2  0  0  0  0
 28 30  1  0  0  0  0
 30 31  1  0  0  0  0
 30 47  1  0  0  0  0
 30 48  1  0  0  0  0
 31 32  2  0  0  0  0
 31 40  1  0  0  0  0
 32 33  1  0  0  0  0
 32 46  1  0  0  0  0
 33 34  2  0  0  0  0
 34 35  1  0  0  0  0
 34 45  1  0  0  0  0
 35 36  2  0  0  0  0
 35 40  1  0  0  0  0
 36 37  1  0  0  0  0
 36 44  1  0  0  0  0
 37 38  2  0  0  0  0
 37 43  1  0  0  0  0
 38 39  1  0  0  0  0
 38 42  1  0  0  0  0
 39 40  2  0  0  0  0
 39 41  1  0  0  0  0
 49 50  2  0  0  0  0
 49 51  1  0  0  0  0
M  END
>  <MODEL>
       4

$$$$
best_conformers_88.pdb
 OpenBabel02042510453D

 64 68  0  0  0  0  0  0  0  0999 V2000
    0.8640    1.5260   27.1730 C   0  0  0  0  0  0  0  0  0  0  0  0
    2.3940    1.5790   27.0860 C   0  0  0  0  0  0  0  0  0  0  0  0
    3.0040    0.6490   26.0340 C   0  0  0  0  0  0  0  0  0  0  0  0
    3.0350    1.0500   24.8760 O   0  0  0  0  0  0  0  0  0  0  0  0
    3.7370   -0.4740   26.4210 N   0  0  0  0  0  0  0  0  0  0  0  0
    3.3840   -1.2060   27.6380 C   0  0  0  0  0  0  0  0  0  0  0  0
    3.4220   -2.7090   27.3360 C   0  0  0  0  0  0  0  0  0  0  0  0
    4.8360   -3.1280   26.9220 C   0  0  0  0  0  0  0  0  0  0  0  0
    5.3760   -2.2140   25.8500 C   0  0  0  0  0  0  0  0  0  0  0  0
    6.4710   -2.6300   25.0800 C   0  0  0  0  0  0  0  0  0  0  0  0
    7.0310   -1.7650   24.1360 C   0  0  0  0  0  0  0  0  0  0  0  0
    6.5190   -0.4800   23.9750 C   0  0  0  0  0  0  0  0  0  0  0  0
    7.1630    0.4290   23.1430 N   0  0  0  0  0  0  0  0  0  0  0  0
    7.9480    1.4610   23.8100 C   0  0  0  0  0  0  0  0  0  0  0  0
    9.3390    0.9620   24.1090 C   0  0  0  0  0  0  0  0  0  0  0  0
   10.4320    1.4940   23.4050 C   0  0  0  0  0  0  0  0  0  0  0  0
   11.7430    1.1740   23.7840 C   0  0  0  0  0  0  0  0  0  0  0  0
   11.9810    0.2580   24.8150 C   0  0  0  0  0  0  0  0  0  0  0  0
   10.8890   -0.3400   25.4620 C   0  0  0  0  0  0  0  0  0  0  0  0
   11.1770   -1.6710   26.7780 Br  0  0  0  0  0  0  0  0  0  0  0  0
    9.5790    0.0200   25.1300 C   0  0  0  0  0  0  0  0  0  0  0  0
    8.7620   -0.4460   25.6740 H   0  0  0  0  0  0  0  0  0  0  0  0
   13.0140    0.0180   25.0710 H   0  0  0  0  0  0  0  0  0  0  0  0
   12.5800    1.6720   23.3000 H   0  0  0  0  0  0  0  0  0  0  0  0
   10.2570    2.1890   22.5830 H   0  0  0  0  0  0  0  0  0  0  0  0
    7.4520    1.7690   24.7360 H   0  0  0  0  0  0  0  0  0  0  0  0
    8.0090    2.3600   23.1860 H   0  0  0  0  0  0  0  0  0  0  0  0
    7.3780    0.1470   21.8060 C   0  0  0  0  0  0  0  0  0  0  0  0
    8.2220    0.7910   21.1810 O   0  0  0  0  0  0  0  0  0  0  0  0
    6.4670   -0.8290   21.0450 C   0  0  0  0  0  0  0  0  0  0  0  0
    5.8120   -0.1820   19.8250 C   0  0  0  0  0  0  0  0  0  0  0  0
    6.2730   -0.4680   18.5260 C   0  0  0  0  0  0  0  0  0  0  0  0
    5.7800    0.1030   17.4120 N   0  0  0  0  0  0  0  0  0  0  0  0
    4.7820    0.9960   17.5590 C   0  0  0  0  0  0  0  0  0  0  0  0
    4.2410    1.3440   18.8040 C   0  0  0  0  0  0  0  0  0  0  0  0
    3.2050    2.2890   18.9120 C   0  0  0  0  0  0  0  0  0  0  0  0
    2.6870    2.6210   20.1680 C   0  0  0  0  0  0  0  0  0  0  0  0
    3.1980    2.0160   21.3200 C   0  0  0  0  0  0  0  0  0  0  0  0
    4.2340    1.0820   21.2140 C   0  0  0  0  0  0  0  0  0  0  0  0
    4.7640    0.7400   19.9630 C   0  0  0  0  0  0  0  0  0  0  0  0
    4.6350    0.6230   22.1110 H   0  0  0  0  0  0  0  0  0  0  0  0
    2.7980    2.2780   22.2960 H   0  0  0  0  0  0  0  0  0  0  0  0
    1.8910    3.3550   20.2530 H   0  0  0  0  0  0  0  0  0  0  0  0
    2.8040    2.7800   18.0280 H   0  0  0  0  0  0  0  0  0  0  0  0
    4.3800    1.4720   16.6690 H   0  0  0  0  0  0  0  0  0  0  0  0
    7.0830   -1.1810   18.4160 H   0  0  0  0  0  0  0  0  0  0  0  0
    7.0530   -1.7020   20.7480 H   0  0  0  0  0  0  0  0  0  0  0  0
    5.6910   -1.1770   21.7340 H   0  0  0  0  0  0  0  0  0  0  0  0
    5.4320   -0.0690   24.7320 C   0  0  0  0  0  0  0  0  0  0  0  0
    4.8270   -0.9270   25.6560 C   0  0  0  0  0  0  0  0  0  0  0  0
    5.0720    0.9440   24.6010 H   0  0  0  0  0  0  0  0  0  0  0  0
    7.8970   -2.0660   23.5560 H   0  0  0  0  0  0  0  0  0  0  0  0
    6.9050   -3.6150   25.2370 H   0  0  0  0  0  0  0  0  0  0  0  0
    5.5000   -3.0840   27.7910 H   0  0  0  0  0  0  0  0  0  0  0  0
    4.8260   -4.1610   26.5580 H   0  0  0  0  0  0  0  0  0  0  0  0
    3.1080   -3.2820   28.2150 H   0  0  0  0  0  0  0  0  0  0  0  0
    2.7280   -2.9320   26.5200 H   0  0  0  0  0  0  0  0  0  0  0  0
    4.0850   -0.9630   28.4440 H   0  0  0  0  0  0  0  0  0  0  0  0
    2.3760   -0.9390   27.9760 H   0  0  0  0  0  0  0  0  0  0  0  0
    2.7000    2.5990   26.8350 H   0  0  0  0  0  0  0  0  0  0  0  0
    2.8230    1.3370   28.0610 H   0  0  0  0  0  0  0  0  0  0  0  0
    0.5240    0.5300   27.4750 H   0  0  0  0  0  0  0  0  0  0  0  0
    0.4130    1.7780   26.2080 H   0  0  0  0  0  0  0  0  0  0  0  0
    0.5080    2.2500   27.9150 H   0  0  0  0  0  0  0  0  0  0  0  0
  1  2  1  0  0  0  0
  1 62  1  0  0  0  0
  1 63  1  0  0  0  0
  1 64  1  0  0  0  0
  2  3  1  0  0  0  0
  2 60  1  0  0  0  0
  2 61  1  0  0  0  0
  3  4  2  0  0  0  0
  3  5  1  0  0  0  0
  5  6  1  0  0  0  0
  5 50  1  0  0  0  0
  6  7  1  0  0  0  0
  6 58  1  0  0  0  0
  6 59  1  0  0  0  0
  7  8  1  0  0  0  0
  7 56  1  0  0  0  0
  7 57  1  0  0  0  0
  8  9  1  0  0  0  0
  8 54  1  0  0  0  0
  8 55  1  0  0  0  0
  9 10  2  0  0  0  0
  9 50  1  0  0  0  0
 10 11  1  0  0  0  0
 10 53  1  0  0  0  0
 11 12  2  0  0  0  0
 11 52  1  0  0  0  0
 12 13  1  0  0  0  0
 12 49  1  0  0  0  0
 13 14  1  0  0  0  0
 13 28  1  0  0  0  0
 14 15  1  0  0  0  0
 14 26  1  0  0  0  0
 14 27  1  0  0  0  0
 15 16  2  0  0  0  0
 15 21  1  0  0  0  0
 16 17  1  0  0  0  0
 16 25  1  0  0  0  0
 17 18  2  0  0  0  0
 17 24  1  0  0  0  0
 18 19  1  0  0  0  0
 18 23  1  0  0  0  0
 19 20  1  0  0  0  0
 19 21  2  0  0  0  0
 21 22  1  0  0  0  0
 28 29  2  0  0  0  0
 28 30  1  0  0  0  0
 30 31  1  0  0  0  0
 30 47  1  0  0  0  0
 30 48  1  0  0  0  0
 31 32  2  0  0  0  0
 31 40  1  0  0  0  0
 32 33  1  0  0  0  0
 32 46  1  0  0  0  0
 33 34  2  0  0  0  0
 34 35  1  0  0  0  0
 34 45  1  0  0  0  0
 35 36  2  0  0  0  0
 35 40  1  0  0  0  0
 36 37  1  0  0  0  0
 36 44  1  0  0  0  0
 37 38  2  0  0  0  0
 37 43  1  0  0  0  0
 38 39  1  0  0  0  0
 38 42  1  0  0  0  0
 39 40  2  0  0  0  0
 39 41  1  0  0  0  0
 49 50  2  0  0  0  0
 49 51  1  0  0  0  0
M  END
>  <MODEL>
       5

$$$$
best_conformers_88.pdb
 OpenBabel02042510453D

 64 68  0  0  0  0  0  0  0  0999 V2000
    1.3780   -0.4260   28.1550 C   0  0  0  0  0  0  0  0  0  0  0  0
    2.8620   -0.1720   27.8810 C   0  0  0  0  0  0  0  0  0  0  0  0
    3.3970   -0.7670   26.5820 C   0  0  0  0  0  0  0  0  0  0  0  0
    3.2640   -0.1090   25.5570 O   0  0  0  0  0  0  0  0  0  0  0  0
    4.2870   -1.8360   26.6350 N   0  0  0  0  0  0  0  0  0  0  0  0
    4.1640   -2.8510   27.6840 C   0  0  0  0  0  0  0  0  0  0  0  0
    4.3250   -4.2360   27.0500 C   0  0  0  0  0  0  0  0  0  0  0  0
    5.7180   -4.3630   26.4170 C   0  0  0  0  0  0  0  0  0  0  0  0
    6.0300   -3.1630   25.5400 C   0  0  0  0  0  0  0  0  0  0  0  0
    7.0560   -3.2400   24.5810 C   0  0  0  0  0  0  0  0  0  0  0  0
    7.3830   -2.1210   23.7910 C   0  0  0  0  0  0  0  0  0  0  0  0
    6.7070   -0.9060   23.9630 C   0  0  0  0  0  0  0  0  0  0  0  0
    7.0780    0.2360   23.2370 N   0  0  0  0  0  0  0  0  0  0  0  0
    7.6640    1.3680   23.9510 C   0  0  0  0  0  0  0  0  0  0  0  0
    9.0550    0.9330   24.3570 C   0  0  0  0  0  0  0  0  0  0  0  0
   10.1990    1.4620   23.7280 C   0  0  0  0  0  0  0  0  0  0  0  0
   11.4700    0.9830   24.0730 C   0  0  0  0  0  0  0  0  0  0  0  0
   11.5900   -0.0800   24.9820 C   0  0  0  0  0  0  0  0  0  0  0  0
   10.4610   -0.6150   25.6090 C   0  0  0  0  0  0  0  0  0  0  0  0
   10.6000   -2.0550   26.8550 Br  0  0  0  0  0  0  0  0  0  0  0  0
    9.2050   -0.0920   25.3040 C   0  0  0  0  0  0  0  0  0  0  0  0
    8.3230   -0.5280   25.7580 H   0  0  0  0  0  0  0  0  0  0  0  0
   12.5690   -0.4770   25.2100 H   0  0  0  0  0  0  0  0  0  0  0  0
   12.3580    1.4080   23.6100 H   0  0  0  0  0  0  0  0  0  0  0  0
   10.1060    2.2180   22.9480 H   0  0  0  0  0  0  0  0  0  0  0  0
    7.0480    1.6260   24.8220 H   0  0  0  0  0  0  0  0  0  0  0  0
    7.6870    2.2550   23.2980 H   0  0  0  0  0  0  0  0  0  0  0  0
    7.2650    0.1390   21.8680 C   0  0  0  0  0  0  0  0  0  0  0  0
    7.9890    0.9470   21.2900 O   0  0  0  0  0  0  0  0  0  0  0  0
    6.4500   -0.8600   21.0360 C   0  0  0  0  0  0  0  0  0  0  0  0
    5.8040   -0.2050   19.8170 C   0  0  0  0  0  0  0  0  0  0  0  0
    6.2780   -0.4750   18.5180 C   0  0  0  0  0  0  0  0  0  0  0  0
    5.7900    0.1060   17.4060 N   0  0  0  0  0  0  0  0  0  0  0  0
    4.7890    0.9970   17.5580 C   0  0  0  0  0  0  0  0  0  0  0  0
    4.2480    1.3400   18.8050 C   0  0  0  0  0  0  0  0  0  0  0  0
    3.2120    2.2840   18.9160 C   0  0  0  0  0  0  0  0  0  0  0  0
    2.6900    2.6150   20.1720 C   0  0  0  0  0  0  0  0  0  0  0  0
    3.1990    2.0090   21.3250 C   0  0  0  0  0  0  0  0  0  0  0  0
    4.2350    1.0730   21.2180 C   0  0  0  0  0  0  0  0  0  0  0  0
    4.7630    0.7280   19.9620 C   0  0  0  0  0  0  0  0  0  0  0  0
    4.6310    0.6130   22.1180 H   0  0  0  0  0  0  0  0  0  0  0  0
    2.7930    2.2670   22.3010 H   0  0  0  0  0  0  0  0  0  0  0  0
    1.8910    3.3470   20.2540 H   0  0  0  0  0  0  0  0  0  0  0  0
    2.8110    2.7740   18.0320 H   0  0  0  0  0  0  0  0  0  0  0  0
    4.3820    1.4760   16.6720 H   0  0  0  0  0  0  0  0  0  0  0  0
    7.0920   -1.1860   18.4130 H   0  0  0  0  0  0  0  0  0  0  0  0
    7.1060   -1.6820   20.7340 H   0  0  0  0  0  0  0  0  0  0  0  0
    5.6630   -1.2690   21.6790 H   0  0  0  0  0  0  0  0  0  0  0  0
    5.6970   -0.8370   24.9170 C   0  0  0  0  0  0  0  0  0  0  0  0
    5.3250   -1.9510   25.6900 C   0  0  0  0  0  0  0  0  0  0  0  0
    5.2010    0.1120   25.0670 H   0  0  0  0  0  0  0  0  0  0  0  0
    8.2010   -2.1830   23.0770 H   0  0  0  0  0  0  0  0  0  0  0  0
    7.6070   -4.1700   24.4570 H   0  0  0  0  0  0  0  0  0  0  0  0
    6.4740   -4.4320   27.2090 H   0  0  0  0  0  0  0  0  0  0  0  0
    5.7690   -5.2850   25.8270 H   0  0  0  0  0  0  0  0  0  0  0  0
    4.1910   -5.0160   27.8050 H   0  0  0  0  0  0  0  0  0  0  0  0
    3.5560   -4.3760   26.2810 H   0  0  0  0  0  0  0  0  0  0  0  0
    3.1790   -2.7970   28.1630 H   0  0  0  0  0  0  0  0  0  0  0  0
    4.9270   -2.6990   28.4590 H   0  0  0  0  0  0  0  0  0  0  0  0
    3.4570   -0.5680   28.7060 H   0  0  0  0  0  0  0  0  0  0  0  0
    3.0310    0.9060   27.8360 H   0  0  0  0  0  0  0  0  0  0  0  0
    1.1780   -1.4940   28.2670 H   0  0  0  0  0  0  0  0  0  0  0  0
    0.7510   -0.0310   27.3500 H   0  0  0  0  0  0  0  0  0  0  0  0
    1.0930    0.0790   29.0840 H   0  0  0  0  0  0  0  0  0  0  0  0
  1  2  1  0  0  0  0
  1 62  1  0  0  0  0
  1 63  1  0  0  0  0
  1 64  1  0  0  0  0
  2  3  1  0  0  0  0
  2 60  1  0  0  0  0
  2 61  1  0  0  0  0
  3  4  2  0  0  0  0
  3  5  1  0  0  0  0
  5  6  1  0  0  0  0
  5 50  1  0  0  0  0
  6  7  1  0  0  0  0
  6 58  1  0  0  0  0
  6 59  1  0  0  0  0
  7  8  1  0  0  0  0
  7 56  1  0  0  0  0
  7 57  1  0  0  0  0
  8  9  1  0  0  0  0
  8 54  1  0  0  0  0
  8 55  1  0  0  0  0
  9 10  2  0  0  0  0
  9 50  1  0  0  0  0
 10 11  1  0  0  0  0
 10 53  1  0  0  0  0
 11 12  2  0  0  0  0
 11 52  1  0  0  0  0
 12 13  1  0  0  0  0
 12 49  1  0  0  0  0
 13 14  1  0  0  0  0
 13 28  1  0  0  0  0
 14 15  1  0  0  0  0
 14 26  1  0  0  0  0
 14 27  1  0  0  0  0
 15 16  2  0  0  0  0
 15 21  1  0  0  0  0
 16 17  1  0  0  0  0
 16 25  1  0  0  0  0
 17 18  2  0  0  0  0
 17 24  1  0  0  0  0
 18 19  1  0  0  0  0
 18 23  1  0  0  0  0
 19 20  1  0  0  0  0
 19 21  2  0  0  0  0
 21 22  1  0  0  0  0
 28 29  2  0  0  0  0
 28 30  1  0  0  0  0
 30 31  1  0  0  0  0
 30 47  1  0  0  0  0
 30 48  1  0  0  0  0
 31 32  2  0  0  0  0
 31 40  1  0  0  0  0
 32 33  1  0  0  0  0
 32 46  1  0  0  0  0
 33 34  2  0  0  0  0
 34 35  1  0  0  0  0
 34 45  1  0  0  0  0
 35 36  2  0  0  0  0
 35 40  1  0  0  0  0
 36 37  1  0  0  0  0
 36 44  1  0  0  0  0
 37 38  2  0  0  0  0
 37 43  1  0  0  0  0
 38 39  1  0  0  0  0
 38 42  1  0  0  0  0
 39 40  2  0  0  0  0
 39 41  1  0  0  0  0
 49 50  2  0  0  0  0
 49 51  1  0  0  0  0
M  END
>  <MODEL>
       6

$$$$
best_conformers_88.pdb
 OpenBabel02042510453D

 64 68  0  0  0  0  0  0  0  0999 V2000
    6.7830   -5.9310   21.9330 C   0  0  0  0  0  0  0  0  0  0  0  0
    7.3400   -4.5590   22.3540 C   0  0  0  0  0  0  0  0  0  0  0  0
    7.8060   -4.6470   23.8000 C   0  0  0  0  0  0  0  0  0  0  0  0
    8.5520   -5.5840   24.0700 O   0  0  0  0  0  0  0  0  0  0  0  0
    6.9870   -4.1110   24.7880 N   0  0  0  0  0  0  0  0  0  0  0  0
    6.6580   -4.9850   25.8980 C   0  0  0  0  0  0  0  0  0  0  0  0
    5.1940   -4.8310   26.2930 C   0  0  0  0  0  0  0  0  0  0  0  0
    4.9040   -3.3870   26.6980 C   0  0  0  0  0  0  0  0  0  0  0  0
    5.4500   -2.4160   25.6760 C   0  0  0  0  0  0  0  0  0  0  0  0
    4.9950   -1.0890   25.6970 C   0  0  0  0  0  0  0  0  0  0  0  0
    5.5440   -0.1490   24.8220 C   0  0  0  0  0  0  0  0  0  0  0  0
    6.5210   -0.5390   23.9120 C   0  0  0  0  0  0  0  0  0  0  0  0
    7.1480    0.4040   23.1100 N   0  0  0  0  0  0  0  0  0  0  0  0
    7.8880    1.4630   23.7790 C   0  0  0  0  0  0  0  0  0  0  0  0
    9.2060    0.9120   24.2340 C   0  0  0  0  0  0  0  0  0  0  0  0
    9.2920    0.0660   25.3560 C   0  0  0  0  0  0  0  0  0  0  0  0
   10.5410   -0.3860   25.8010 C   0  0  0  0  0  0  0  0  0  0  0  0
   11.7050    0.0100   25.1210 C   0  0  0  0  0  0  0  0  0  0  0  0
   11.6220    0.8290   23.9840 C   0  0  0  0  0  0  0  0  0  0  0  0
   13.1910    1.3300   23.0140 Br  0  0  0  0  0  0  0  0  0  0  0  0
   10.3690    1.2500   23.5340 C   0  0  0  0  0  0  0  0  0  0  0  0
   10.2930    1.8350   22.6220 H   0  0  0  0  0  0  0  0  0  0  0  0
   12.6760   -0.3250   25.4700 H   0  0  0  0  0  0  0  0  0  0  0  0
   10.6080   -1.0050   26.6930 H   0  0  0  0  0  0  0  0  0  0  0  0
    8.3970   -0.2330   25.8970 H   0  0  0  0  0  0  0  0  0  0  0  0
    8.0390    2.3150   23.1040 H   0  0  0  0  0  0  0  0  0  0  0  0
    7.3300    1.8400   24.6420 H   0  0  0  0  0  0  0  0  0  0  0  0
    7.3630    0.1490   21.7660 C   0  0  0  0  0  0  0  0  0  0  0  0
    8.1710    0.8150   21.1290 O   0  0  0  0  0  0  0  0  0  0  0  0
    6.4590   -0.8400   21.0200 C   0  0  0  0  0  0  0  0  0  0  0  0
    5.8030   -0.1960   19.8040 C   0  0  0  0  0  0  0  0  0  0  0  0
    6.2690   -0.4740   18.5060 C   0  0  0  0  0  0  0  0  0  0  0  0
    5.7780    0.1090   17.3970 N   0  0  0  0  0  0  0  0  0  0  0  0
    4.7780    1.0000   17.5550 C   0  0  0  0  0  0  0  0  0  0  0  0
    4.2410    1.3430   18.8020 C   0  0  0  0  0  0  0  0  0  0  0  0
    3.2080    2.2900   18.9130 C   0  0  0  0  0  0  0  0  0  0  0  0
    2.6940    2.6210   20.1710 C   0  0  0  0  0  0  0  0  0  0  0  0
    3.2090    2.0150   21.3220 C   0  0  0  0  0  0  0  0  0  0  0  0
    4.2450    1.0780   21.2150 C   0  0  0  0  0  0  0  0  0  0  0  0
    4.7620    0.7330   19.9560 C   0  0  0  0  0  0  0  0  0  0  0  0
    4.6510    0.6200   22.1120 H   0  0  0  0  0  0  0  0  0  0  0  0
    2.8070    2.2800   22.2970 H   0  0  0  0  0  0  0  0  0  0  0  0
    1.8980    3.3560   20.2510 H   0  0  0  0  0  0  0  0  0  0  0  0
    2.8090    2.7800   18.0270 H   0  0  0  0  0  0  0  0  0  0  0  0
    4.3680    1.4770   16.6710 H   0  0  0  0  0  0  0  0  0  0  0  0
    7.0890   -1.1790   18.4080 H   0  0  0  0  0  0  0  0  0  0  0  0
    5.6800   -1.1800   21.7080 H   0  0  0  0  0  0  0  0  0  0  0  0
    7.0600   -1.7050   20.7390 H   0  0  0  0  0  0  0  0  0  0  0  0
    6.9610   -1.8610   23.8750 C   0  0  0  0  0  0  0  0  0  0  0  0
    6.4460   -2.8140   24.7530 C   0  0  0  0  0  0  0  0  0  0  0  0
    7.7700   -2.1300   23.2090 H   0  0  0  0  0  0  0  0  0  0  0  0
    5.2290    0.8890   24.8510 H   0  0  0  0  0  0  0  0  0  0  0  0
    4.2350   -0.7840   26.4110 H   0  0  0  0  0  0  0  0  0  0  0  0
    5.3690   -3.1840   27.6670 H   0  0  0  0  0  0  0  0  0  0  0  0
    3.8240   -3.2490   26.8080 H   0  0  0  0  0  0  0  0  0  0  0  0
    4.5590   -5.1020   25.4440 H   0  0  0  0  0  0  0  0  0  0  0  0
    4.9680   -5.5090   27.1200 H   0  0  0  0  0  0  0  0  0  0  0  0
    6.8170   -6.0260   25.5910 H   0  0  0  0  0  0  0  0  0  0  0  0
    7.3130   -4.7590   26.7440 H   0  0  0  0  0  0  0  0  0  0  0  0
    6.5590   -3.8000   22.2690 H   0  0  0  0  0  0  0  0  0  0  0  0
    8.1820   -4.2730   21.7220 H   0  0  0  0  0  0  0  0  0  0  0  0
    6.4380   -5.9130   20.8960 H   0  0  0  0  0  0  0  0  0  0  0  0
    7.5560   -6.7020   22.0400 H   0  0  0  0  0  0  0  0  0  0  0  0
    5.9440   -6.2080   22.5840 H   0  0  0  0  0  0  0  0  0  0  0  0
  1  2  1  0  0  0  0
  1 62  1  0  0  0  0
  1 63  1  0  0  0  0
  1 64  1  0  0  0  0
  2  3  1  0  0  0  0
  2 60  1  0  0  0  0
  2 61  1  0  0  0  0
  3  4  2  0  0  0  0
  3  5  1  0  0  0  0
  5  6  1  0  0  0  0
  5 50  1  0  0  0  0
  6  7  1  0  0  0  0
  6 58  1  0  0  0  0
  6 59  1  0  0  0  0
  7  8  1  0  0  0  0
  7 56  1  0  0  0  0
  7 57  1  0  0  0  0
  8  9  1  0  0  0  0
  8 54  1  0  0  0  0
  8 55  1  0  0  0  0
  9 10  2  0  0  0  0
  9 50  1  0  0  0  0
 10 11  1  0  0  0  0
 10 53  1  0  0  0  0
 11 12  2  0  0  0  0
 11 52  1  0  0  0  0
 12 13  1  0  0  0  0
 12 49  1  0  0  0  0
 13 14  1  0  0  0  0
 13 28  1  0  0  0  0
 14 15  1  0  0  0  0
 14 26  1  0  0  0  0
 14 27  1  0  0  0  0
 15 16  2  0  0  0  0
 15 21  1  0  0  0  0
 16 17  1  0  0  0  0
 16 25  1  0  0  0  0
 17 18  2  0  0  0  0
 17 24  1  0  0  0  0
 18 19  1  0  0  0  0
 18 23  1  0  0  0  0
 19 20  1  0  0  0  0
 19 21  2  0  0  0  0
 21 22  1  0  0  0  0
 28 29  2  0  0  0  0
 28 30  1  0  0  0  0
 30 31  1  0  0  0  0
 30 47  1  0  0  0  0
 30 48  1  0  0  0  0
 31 32  2  0  0  0  0
 31 40  1  0  0  0  0
 32 33  1  0  0  0  0
 32 46  1  0  0  0  0
 33 34  2  0  0  0  0
 34 35  1  0  0  0  0
 34 45  1  0  0  0  0
 35 36  2  0  0  0  0
 35 40  1  0  0  0  0
 36 37  1  0  0  0  0
 36 44  1  0  0  0  0
 37 38  2  0  0  0  0
 37 43  1  0  0  0  0
 38 39  1  0  0  0  0
 38 42  1  0  0  0  0
 39 40  2  0  0  0  0
 39 41  1  0  0  0  0
 49 50  2  0  0  0  0
 49 51  1  0  0  0  0
M  END
>  <MODEL>
       7

$$$$
best_conformers_88.pdb
 OpenBabel02042510453D

 64 68  0  0  0  0  0  0  0  0999 V2000
    7.9740    5.7650   23.2880 C   0  0  0  0  0  0  0  0  0  0  0  0
    8.2370    4.9500   24.5430 C   0  0  0  0  0  0  0  0  0  0  0  0
    8.7320    3.5340   24.2300 C   0  0  0  0  0  0  0  0  0  0  0  0
    8.0350    2.6180   24.6530 O   0  0  0  0  0  0  0  0  0  0  0  0
    9.8460    3.2540   23.4320 N   0  0  0  0  0  0  0  0  0  0  0  0
   10.8910    4.2600   23.2240 C   0  0  0  0  0  0  0  0  0  0  0  0
   12.0190    3.7340   22.3240 C   0  0  0  0  0  0  0  0  0  0  0  0
   12.5470    2.4560   22.9830 C   0  0  0  0  0  0  0  0  0  0  0  0
   11.4260    1.4500   22.9460 C   0  0  0  0  0  0  0  0  0  0  0  0
   11.6650    0.0910   22.6880 C   0  0  0  0  0  0  0  0  0  0  0  0
   10.5820   -0.7860   22.4980 C   0  0  0  0  0  0  0  0  0  0  0  0
    9.2710   -0.3010   22.5760 C   0  0  0  0  0  0  0  0  0  0  0  0
    8.1410   -1.0520   22.2470 N   0  0  0  0  0  0  0  0  0  0  0  0
    7.6000   -1.9690   23.2540 C   0  0  0  0  0  0  0  0  0  0  0  0
    6.8780   -1.2070   24.3510 C   0  0  0  0  0  0  0  0  0  0  0  0
    7.5880   -0.7570   25.4780 C   0  0  0  0  0  0  0  0  0  0  0  0
    6.9540   -0.0050   26.4730 C   0  0  0  0  0  0  0  0  0  0  0  0
    5.5960    0.3060   26.3590 C   0  0  0  0  0  0  0  0  0  0  0  0
    4.8660   -0.1590   25.2620 C   0  0  0  0  0  0  0  0  0  0  0  0
    3.0120    0.2750   25.0980 Br  0  0  0  0  0  0  0  0  0  0  0  0
    5.5020   -0.9210   24.2730 C   0  0  0  0  0  0  0  0  0  0  0  0
    4.9050   -1.2760   23.4410 H   0  0  0  0  0  0  0  0  0  0  0  0
    5.1050    0.9080   27.1190 H   0  0  0  0  0  0  0  0  0  0  0  0
    7.5170    0.3540   27.3290 H   0  0  0  0  0  0  0  0  0  0  0  0
    8.6460   -0.9780   25.5820 H   0  0  0  0  0  0  0  0  0  0  0  0
    8.4230   -2.5410   23.6940 H   0  0  0  0  0  0  0  0  0  0  0  0
    6.9220   -2.6960   22.7970 H   0  0  0  0  0  0  0  0  0  0  0  0
    7.3630   -0.5890   21.1820 C   0  0  0  0  0  0  0  0  0  0  0  0
    7.7700    0.3500   20.4950 O   0  0  0  0  0  0  0  0  0  0  0  0
    6.0320   -1.2540   20.7780 C   0  0  0  0  0  0  0  0  0  0  0  0
    5.3820   -0.5620   19.5750 C   0  0  0  0  0  0  0  0  0  0  0  0
    5.8200   -0.8480   18.2670 C   0  0  0  0  0  0  0  0  0  0  0  0
    5.4740   -0.1260   17.1870 N   0  0  0  0  0  0  0  0  0  0  0  0
    4.6290    0.9050   17.3740 C   0  0  0  0  0  0  0  0  0  0  0  0
    4.0780    1.2310   18.6200 C   0  0  0  0  0  0  0  0  0  0  0  0
    3.1950    2.3170   18.7630 C   0  0  0  0  0  0  0  0  0  0  0  0
    2.7240    2.6720   20.0320 C   0  0  0  0  0  0  0  0  0  0  0  0
    3.1130    1.9370   21.1560 C   0  0  0  0  0  0  0  0  0  0  0  0
    3.9670    0.8390   21.0120 C   0  0  0  0  0  0  0  0  0  0  0  0
    4.4650    0.4840   19.7490 C   0  0  0  0  0  0  0  0  0  0  0  0
    4.2560    0.2750   21.8930 H   0  0  0  0  0  0  0  0  0  0  0  0
    2.7680    2.2260   22.1450 H   0  0  0  0  0  0  0  0  0  0  0  0
    2.0690    3.5300   20.1480 H   0  0  0  0  0  0  0  0  0  0  0  0
    2.8910    2.9040   17.8990 H   0  0  0  0  0  0  0  0  0  0  0  0
    4.3870    1.5300   16.5190 H   0  0  0  0  0  0  0  0  0  0  0  0
    6.5290   -1.6590   18.1290 H   0  0  0  0  0  0  0  0  0  0  0  0
    5.3520   -1.2280   21.6310 H   0  0  0  0  0  0  0  0  0  0  0  0
    6.2270   -2.3020   20.5450 H   0  0  0  0  0  0  0  0  0  0  0  0
    9.0570    1.0350   22.8840 C   0  0  0  0  0  0  0  0  0  0  0  0
   10.1100    1.9140   23.1010 C   0  0  0  0  0  0  0  0  0  0  0  0
    8.0390    1.3980   22.9290 H   0  0  0  0  0  0  0  0  0  0  0  0
   10.7560   -1.8250   22.2360 H   0  0  0  0  0  0  0  0  0  0  0  0
   12.6920   -0.2630   22.6040 H   0  0  0  0  0  0  0  0  0  0  0  0
   12.8250    2.6790   24.0130 H   0  0  0  0  0  0  0  0  0  0  0  0
   13.4410    2.0870   22.4710 H   0  0  0  0  0  0  0  0  0  0  0  0
   12.8180    4.4780   22.2570 H   0  0  0  0  0  0  0  0  0  0  0  0
   11.6380    3.5300   21.3120 H   0  0  0  0  0  0  0  0  0  0  0  0
   10.4740    5.1730   22.7960 H   0  0  0  0  0  0  0  0  0  0  0  0
   11.3310    4.5060   24.1940 H   0  0  0  0  0  0  0  0  0  0  0  0
    8.9390    5.4960   25.1630 H   0  0  0  0  0  0  0  0  0  0  0  0
    7.3120    4.8680   25.1170 H   0  0  0  0  0  0  0  0  0  0  0  0
    7.3530    6.6320   23.5330 H   0  0  0  0  0  0  0  0  0  0  0  0
    8.9170    6.1270   22.8700 H   0  0  0  0  0  0  0  0  0  0  0  0
    7.4640    5.1500   22.5420 H   0  0  0  0  0  0  0  0  0  0  0  0
  1  2  1  0  0  0  0
  1 62  1  0  0  0  0
  1 63  1  0  0  0  0
  1 64  1  0  0  0  0
  2  3  1  0  0  0  0
  2 60  1  0  0  0  0
  2 61  1  0  0  0  0
  3  4  2  0  0  0  0
  3  5  1  0  0  0  0
  5  6  1  0  0  0  0
  5 50  1  0  0  0  0
  6  7  1  0  0  0  0
  6 58  1  0  0  0  0
  6 59  1  0  0  0  0
  7  8  1  0  0  0  0
  7 56  1  0  0  0  0
  7 57  1  0  0  0  0
  8  9  1  0  0  0  0
  8 54  1  0  0  0  0
  8 55  1  0  0  0  0
  9 10  2  0  0  0  0
  9 50  1  0  0  0  0
 10 11  1  0  0  0  0
 10 53  1  0  0  0  0
 11 12  2  0  0  0  0
 11 52  1  0  0  0  0
 12 13  1  0  0  0  0
 12 49  1  0  0  0  0
 13 14  1  0  0  0  0
 13 28  1  0  0  0  0
 14 15  1  0  0  0  0
 14 26  1  0  0  0  0
 14 27  1  0  0  0  0
 15 16  2  0  0  0  0
 15 21  1  0  0  0  0
 16 17  1  0  0  0  0
 16 25  1  0  0  0  0
 17 18  2  0  0  0  0
 17 24  1  0  0  0  0
 18 19  1  0  0  0  0
 18 23  1  0  0  0  0
 19 20  1  0  0  0  0
 19 21  2  0  0  0  0
 21 22  1  0  0  0  0
 28 29  2  0  0  0  0
 28 30  1  0  0  0  0
 30 31  1  0  0  0  0
 30 47  1  0  0  0  0
 30 48  1  0  0  0  0
 31 32  2  0  0  0  0
 31 40  1  0  0  0  0
 32 33  1  0  0  0  0
 32 46  1  0  0  0  0
 33 34  2  0  0  0  0
 34 35  1  0  0  0  0
 34 45  1  0  0  0  0
 35 36  2  0  0  0  0
 35 40  1  0  0  0  0
 36 37  1  0  0  0  0
 36 44  1  0  0  0  0
 37 38  2  0  0  0  0
 37 43  1  0  0  0  0
 38 39  1  0  0  0  0
 38 42  1  0  0  0  0
 39 40  2  0  0  0  0
 39 41  1  0  0  0  0
 49 50  2  0  0  0  0
 49 51  1  0  0  0  0
M  END
>  <MODEL>
       8

$$$$
