best_conformers_28.pdb
 OpenBabel02042510453D

 70 75  0  0  1  0  0  0  0  0999 V2000
    6.7170   -3.9420   28.6060 C   0  0  0  0  0  0  0  0  0  0  0  0
    6.5050   -3.9020   27.1420 N   0  3  0  0  0  0  0  0  0  0  0  0
    5.4610   -2.9240   26.7140 C   0  0  0  0  0  0  0  0  0  0  0  0
    6.0180   -1.5030   26.5840 C   0  0  0  0  0  0  0  0  0  0  0  0
    7.0030   -1.3720   25.5100 N   0  0  0  0  0  0  0  0  0  0  0  0
    6.5680   -0.7750   24.2530 C   0  0  0  0  0  0  0  0  0  0  0  0
    7.5210   -1.0570   23.0610 C   0  0  2  0  0  0  0  0  0  0  0  0
    7.1130   -0.0780   21.9520 C   0  0  0  0  0  0  0  0  0  0  0  0
    7.2830    1.1250   21.9320 O   0  0  0  0  0  0  0  0  0  0  0  0
    6.4400   -0.7850   20.9780 N   0  0  0  0  0  0  0  0  0  0  0  0
    5.8350   -0.1550   19.8700 C   0  0  0  0  0  0  0  0  0  0  0  0
    6.2670   -0.4590   18.6060 C   0  0  0  0  0  0  0  0  0  0  0  0
    5.7920    0.1050   17.4700 N   0  0  0  0  0  0  0  0  0  0  0  0
    4.8250    0.9840   17.6070 C   0  0  0  0  0  0  0  0  0  0  0  0
    4.2530    1.3560   18.8570 C   0  0  0  0  0  0  0  0  0  0  0  0
    3.1980    2.3020   18.9410 C   0  0  0  0  0  0  0  0  0  0  0  0
    2.6430    2.6160   20.1500 C   0  0  0  0  0  0  0  0  0  0  0  0
    3.1110    1.9980   21.3330 C   0  0  0  0  0  0  0  0  0  0  0  0
    4.1370    1.0920   21.2800 C   0  0  0  0  0  0  0  0  0  0  0  0
    4.7510    0.7610   20.0370 C   0  0  0  0  0  0  0  0  0  0  0  0
    4.4940    0.6330   22.1980 H   0  0  0  0  0  0  0  0  0  0  0  0
    2.6550    2.2510   22.2870 H   0  0  0  0  0  0  0  0  0  0  0  0
    1.8330    3.3380   20.2090 H   0  0  0  0  0  0  0  0  0  0  0  0
    2.8470    2.7640   18.0210 H   0  0  0  0  0  0  0  0  0  0  0  0
    4.4370    1.4450   16.6980 H   0  0  0  0  0  0  0  0  0  0  0  0
    7.0690   -1.1860   18.4810 H   0  0  0  0  0  0  0  0  0  0  0  0
    6.2570   -2.1900   21.2810 C   0  0  0  0  0  0  0  0  0  0  0  0
    7.3220   -2.4330   22.3530 C   0  0  2  0  0  0  0  0  0  0  0  0
    7.0190   -3.6170   23.2510 C   0  0  0  0  0  0  0  0  0  0  0  0
    7.0950   -4.8090   22.4860 O   0  0  0  0  0  0  0  0  0  0  0  0
    5.8680   -5.4640   22.2820 C   0  0  0  0  0  0  0  0  0  0  0  0
    5.4510   -6.2910   23.4780 C   0  0  0  0  0  0  0  0  0  0  0  0
    5.0960   -5.4740   24.5480 F   0  0  0  0  0  0  0  0  0  0  0  0
    6.3680   -7.4210   23.9410 C   0  0  0  0  0  0  0  0  0  0  0  0
    5.2280   -8.2770   24.1440 O   0  0  0  0  0  0  0  0  0  0  0  0
    4.4260   -7.3960   23.3280 C   0  0  0  0  0  0  0  0  0  0  0  0
    3.4170   -7.2150   23.7170 H   0  0  0  0  0  0  0  0  0  0  0  0
    4.3660   -7.7030   22.2760 H   0  0  0  0  0  0  0  0  0  0  0  0
    7.0030   -7.7950   23.1280 H   0  0  0  0  0  0  0  0  0  0  0  0
    6.9810   -7.2580   24.8330 H   0  0  0  0  0  0  0  0  0  0  0  0
    5.0770   -4.7500   22.0150 H   0  0  0  0  0  0  0  0  0  0  0  0
    6.0300   -6.1340   21.4300 H   0  0  0  0  0  0  0  0  0  0  0  0
    7.7540   -3.6670   24.0660 H   0  0  0  0  0  0  0  0  0  0  0  0
    6.0230   -3.5000   23.6950 H   0  0  0  0  0  0  0  0  0  0  0  0
    8.2610   -2.6610   21.8350 H   0  0  0  0  0  0  0  0  0  0  0  0
    5.2340   -2.3950   21.6430 H   0  0  0  0  0  0  0  0  0  0  0  0
    6.4000   -2.7930   20.3840 H   0  0  0  0  0  0  0  0  0  0  0  0
    8.9530   -0.8830   23.5020 C   0  0  0  0  0  0  0  0  0  0  0  0
    9.9490   -0.5880   22.5670 C   0  0  0  0  0  0  0  0  0  0  0  0
   11.2670   -0.4870   22.9730 C   0  0  0  0  0  0  0  0  0  0  0  0
   12.5030   -0.1510   21.8020 Cl  0  0  0  0  0  0  0  0  0  0  0  0
   11.6410   -0.6910   24.3000 C   0  0  0  0  0  0  0  0  0  0  0  0
   10.6610   -1.0270   25.2150 C   0  0  0  0  0  0  0  0  0  0  0  0
    9.3280   -1.1440   24.8200 C   0  0  0  0  0  0  0  0  0  0  0  0
    8.3030   -1.6550   25.7810 C   0  0  0  0  0  0  0  0  0  0  0  0
    8.6240   -2.3340   26.7590 O   0  0  0  0  0  0  0  0  0  0  0  0
   10.9250   -1.2050   26.2500 H   0  0  0  0  0  0  0  0  0  0  0  0
   12.6850   -0.6150   24.5890 H   0  0  0  0  0  0  0  0  0  0  0  0
    9.6880   -0.4390   21.5260 H   0  0  0  0  0  0  0  0  0  0  0  0
    6.4900    0.3140   24.3690 H   0  0  0  0  0  0  0  0  0  0  0  0
    5.5600   -1.1450   24.0120 H   0  0  0  0  0  0  0  0  0  0  0  0
    6.4970   -1.2130   27.5280 H   0  0  0  0  0  0  0  0  0  0  0  0
    5.2090   -0.7890   26.3950 H   0  0  0  0  0  0  0  0  0  0  0  0
    4.6370   -2.9300   27.4370 H   0  0  0  0  0  0  0  0  0  0  0  0
    5.0600   -3.2600   25.7540 H   0  0  0  0  0  0  0  0  0  0  0  0
    6.2700   -4.8400   26.7750 H   0  0  0  0  0  0  0  0  0  0  0  0
    7.4210   -3.6180   26.7410 H   0  0  0  0  0  0  0  0  0  0  0  0
    7.2260   -3.0330   28.9410 H   0  0  0  0  0  0  0  0  0  0  0  0
    5.7650   -4.0270   29.1380 H   0  0  0  0  0  0  0  0  0  0  0  0
    7.3460   -4.7930   28.8680 H   0  0  0  0  0  0  0  0  0  0  0  0
  1  2  1  0  0  0  0
  1 68  1  0  0  0  0
  1 69  1  0  0  0  0
  1 70  1  0  0  0  0
  2  3  1  0  0  0  0
  2 66  1  0  0  0  0
  2 67  1  0  0  0  0
  3  4  1  0  0  0  0
  3 64  1  0  0  0  0
  3 65  1  0  0  0  0
  4  5  1  0  0  0  0
  4 62  1  0  0  0  0
  4 63  1  0  0  0  0
  5  6  1  0  0  0  0
  5 55  1  0  0  0  0
  6  7  1  0  0  0  0
  6 60  1  0  0  0  0
  6 61  1  0  0  0  0
  7  8  1  6  0  0  0
  7 28  1  0  0  0  0
  7 48  1  0  0  0  0
  8  9  2  0  0  0  0
  8 10  1  0  0  0  0
 10 11  1  0  0  0  0
 10 27  1  0  0  0  0
 11 12  2  0  0  0  0
 11 20  1  0  0  0  0
 12 13  1  0  0  0  0
 12 26  1  0  0  0  0
 13 14  2  0  0  0  0
 14 15  1  0  0  0  0
 14 25  1  0  0  0  0
 15 16  2  0  0  0  0
 15 20  1  0  0  0  0
 16 17  1  0  0  0  0
 16 24  1  0  0  0  0
 17 18  2  0  0  0  0
 17 23  1  0  0  0  0
 18 19  1  0  0  0  0
 18 22  1  0  0  0  0
 19 20  2  0  0  0  0
 19 21  1  0  0  0  0
 27 28  1  0  0  0  0
 27 46  1  0  0  0  0
 27 47  1  0  0  0  0
 28 29  1  0  0  0  0
 28 45  1  6  0  0  0
 29 30  1  0  0  0  0
 29 43  1  0  0  0  0
 29 44  1  0  0  0  0
 30 31  1  0  0  0  0
 31 32  1  0  0  0  0
 31 41  1  0  0  0  0
 31 42  1  0  0  0  0
 32 33  1  0  0  0  0
 32 34  1  0  0  0  0
 32 36  1  0  0  0  0
 34 35  1  0  0  0  0
 34 39  1  0  0  0  0
 34 40  1  0  0  0  0
 35 36  1  0  0  0  0
 36 37  1  0  0  0  0
 36 38  1  0  0  0  0
 48 49  2  0  0  0  0
 48 54  1  0  0  0  0
 49 50  1  0  0  0  0
 49 59  1  0  0  0  0
 50 51  1  0  0  0  0
 50 52  2  0  0  0  0
 52 53  1  0  0  0  0
 52 58  1  0  0  0  0
 53 54  2  0  0  0  0
 53 57  1  0  0  0  0
 54 55  1  0  0  0  0
 55 56  2  0  0  0  0
M  CHG  1   2   1
M  END
>  <MODEL>
       1

$$$$
