best_conformers_54.pdb
 OpenBabel02042510453D

 66 71  0  0  1  0  0  0  0  0999 V2000
    5.0240   -8.2320   25.4620 C   0  0  0  0  0  0  0  0  0  0  0  0
    4.5020   -7.0470   24.8130 N   0  0  0  0  0  0  0  0  0  0  0  0
    5.1710   -6.5460   23.7510 C   0  0  0  0  0  0  0  0  0  0  0  0
    6.1890   -7.0550   23.3070 O   0  0  0  0  0  0  0  0  0  0  0  0
    4.5730   -5.2780   23.1300 C   0  0  0  0  0  0  0  0  0  0  0  0
    5.1540   -4.0650   23.6650 N   0  0  0  0  0  0  0  0  0  0  0  0
    6.4740   -3.6580   23.2170 C   0  0  0  0  0  0  0  0  0  0  0  0
    6.5490   -2.1290   22.9780 C   0  0  2  0  0  0  0  0  0  0  0  0
    5.6840   -1.7450   21.7560 C   0  0  0  0  0  0  0  0  0  0  0  0
    4.5550   -2.1230   21.5250 O   0  0  0  0  0  0  0  0  0  0  0  0
    6.3950   -0.8710   20.9650 N   0  0  0  0  0  0  0  0  0  0  0  0
    5.8040   -0.2070   19.8570 C   0  0  0  0  0  0  0  0  0  0  0  0
    6.2570   -0.4590   18.5870 C   0  0  0  0  0  0  0  0  0  0  0  0
    5.7810    0.1300   17.4610 N   0  0  0  0  0  0  0  0  0  0  0  0
    4.8080    1.0000   17.6080 C   0  0  0  0  0  0  0  0  0  0  0  0
    4.2390    1.3620   18.8640 C   0  0  0  0  0  0  0  0  0  0  0  0
    3.1920    2.3210   18.9570 C   0  0  0  0  0  0  0  0  0  0  0  0
    2.6800    2.6690   20.1760 C   0  0  0  0  0  0  0  0  0  0  0  0
    3.2000    2.0860   21.3540 C   0  0  0  0  0  0  0  0  0  0  0  0
    4.2120    1.1610   21.2920 C   0  0  0  0  0  0  0  0  0  0  0  0
    4.7510    0.7550   20.0340 C   0  0  0  0  0  0  0  0  0  0  0  0
    4.6020    0.7280   22.2130 H   0  0  0  0  0  0  0  0  0  0  0  0
    2.7850    2.3710   22.3160 H   0  0  0  0  0  0  0  0  0  0  0  0
    1.8790    3.4010   20.2470 H   0  0  0  0  0  0  0  0  0  0  0  0
    2.8180    2.7740   18.0410 H   0  0  0  0  0  0  0  0  0  0  0  0
    4.4150    1.4600   16.7010 H   0  0  0  0  0  0  0  0  0  0  0  0
    7.0480   -1.1890   18.4290 H   0  0  0  0  0  0  0  0  0  0  0  0
    7.7550   -0.6270   21.4050 C   0  0  0  0  0  0  0  0  0  0  0  0
    7.9720   -1.6030   22.5890 C   0  0  2  0  0  0  0  0  0  0  0  0
    9.0450   -2.6680   22.2310 C   0  0  0  0  0  0  0  0  0  0  0  0
   10.3460   -2.0770   21.9670 N   0  0  0  0  0  0  0  0  0  0  0  0
   11.1860   -1.6210   22.9370 C   0  0  0  0  0  0  0  0  0  0  0  0
   12.4110   -0.9920   22.5800 C   0  0  0  0  0  0  0  0  0  0  0  0
   13.2410   -0.5140   23.4820 N   0  0  0  0  0  0  0  0  0  0  0  0
   12.8830   -0.6620   24.7700 C   0  0  0  0  0  0  0  0  0  0  0  0
   11.6980   -1.2800   25.1220 C   0  0  0  0  0  0  0  0  0  0  0  0
   10.8360   -1.7580   24.2140 N   0  0  0  0  0  0  0  0  0  0  0  0
   11.4070   -1.3960   26.1660 H   0  0  0  0  0  0  0  0  0  0  0  0
   13.5620   -0.2770   25.5260 H   0  0  0  0  0  0  0  0  0  0  0  0
   12.6980   -0.8680   21.5340 H   0  0  0  0  0  0  0  0  0  0  0  0
   10.7110   -2.0560   21.0290 H   0  0  0  0  0  0  0  0  0  0  0  0
    8.7560   -3.2060   21.3250 H   0  0  0  0  0  0  0  0  0  0  0  0
    9.1420   -3.3830   23.0590 H   0  0  0  0  0  0  0  0  0  0  0  0
    8.3970   -1.0790   23.4520 H   0  0  0  0  0  0  0  0  0  0  0  0
    8.4500   -0.8070   20.5770 H   0  0  0  0  0  0  0  0  0  0  0  0
    7.8890    0.4230   21.7060 H   0  0  0  0  0  0  0  0  0  0  0  0
    5.9670   -1.4420   24.2180 C   0  0  0  0  0  0  0  0  0  0  0  0
    6.2620   -0.0960   24.4830 C   0  0  0  0  0  0  0  0  0  0  0  0
    5.7050    0.5360   25.5820 C   0  0  0  0  0  0  0  0  0  0  0  0
    6.0860    2.2060   25.9010 Cl  0  0  0  0  0  0  0  0  0  0  0  0
    4.8340   -0.1320   26.4390 C   0  0  0  0  0  0  0  0  0  0  0  0
    4.5050   -1.4450   26.1600 C   0  0  0  0  0  0  0  0  0  0  0  0
    5.0460   -2.0950   25.0520 C   0  0  0  0  0  0  0  0  0  0  0  0
    4.5580   -3.4800   24.7390 C   0  0  0  0  0  0  0  0  0  0  0  0
    3.6650   -4.0420   25.3710 O   0  0  0  0  0  0  0  0  0  0  0  0
    3.8030   -2.0000   26.7750 H   0  0  0  0  0  0  0  0  0  0  0  0
    4.4140    0.3870   27.2920 H   0  0  0  0  0  0  0  0  0  0  0  0
    6.9080    0.4930   23.8390 H   0  0  0  0  0  0  0  0  0  0  0  0
    6.6840   -4.2040   22.2930 H   0  0  0  0  0  0  0  0  0  0  0  0
    7.2170   -3.9400   23.9790 H   0  0  0  0  0  0  0  0  0  0  0  0
    4.7820   -5.3070   22.0560 H   0  0  0  0  0  0  0  0  0  0  0  0
    3.4920   -5.2260   23.2860 H   0  0  0  0  0  0  0  0  0  0  0  0
    3.6670   -6.5810   25.1400 H   0  0  0  0  0  0  0  0  0  0  0  0
    6.0290   -8.0470   25.8590 H   0  0  0  0  0  0  0  0  0  0  0  0
    4.3590   -8.5220   26.2770 H   0  0  0  0  0  0  0  0  0  0  0  0
    5.1010   -9.0360   24.7290 H   0  0  0  0  0  0  0  0  0  0  0  0
  1  2  1  0  0  0  0
  1 64  1  0  0  0  0
  1 65  1  0  0  0  0
  1 66  1  0  0  0  0
  2  3  1  0  0  0  0
  2 63  1  0  0  0  0
  3  4  2  0  0  0  0
  3  5  1  0  0  0  0
  5  6  1  0  0  0  0
  5 61  1  0  0  0  0
  5 62  1  0  0  0  0
  6  7  1  0  0  0  0
  6 54  1  0  0  0  0
  7  8  1  0  0  0  0
  7 59  1  0  0  0  0
  7 60  1  0  0  0  0
  8  9  1  6  0  0  0
  8 29  1  0  0  0  0
  8 47  1  0  0  0  0
  9 10  2  0  0  0  0
  9 11  1  0  0  0  0
 11 12  1  0  0  0  0
 11 28  1  0  0  0  0
 12 13  2  0  0  0  0
 12 21  1  0  0  0  0
 13 14  1  0  0  0  0
 13 27  1  0  0  0  0
 14 15  2  0  0  0  0
 15 16  1  0  0  0  0
 15 26  1  0  0  0  0
 16 17  2  0  0  0  0
 16 21  1  0  0  0  0
 17 18  1  0  0  0  0
 17 25  1  0  0  0  0
 18 19  2  0  0  0  0
 18 24  1  0  0  0  0
 19 20  1  0  0  0  0
 19 23  1  0  0  0  0
 20 21  2  0  0  0  0
 20 22  1  0  0  0  0
 28 29  1  0  0  0  0
 28 45  1  0  0  0  0
 28 46  1  0  0  0  0
 29 30  1  0  0  0  0
 29 44  1  1  0  0  0
 30 31  1  0  0  0  0
 30 42  1  0  0  0  0
 30 43  1  0  0  0  0
 31 32  1  0  0  0  0
 31 41  1  0  0  0  0
 32 33  2  0  0  0  0
 32 37  1  0  0  0  0
 33 34  1  0  0  0  0
 33 40  1  0  0  0  0
 34 35  2  0  0  0  0
 35 36  1  0  0  0  0
 35 39  1  0  0  0  0
 36 37  2  0  0  0  0
 36 38  1  0  0  0  0
 47 48  2  0  0  0  0
 47 53  1  0  0  0  0
 48 49  1  0  0  0  0
 48 58  1  0  0  0  0
 49 50  1  0  0  0  0
 49 51  2  0  0  0  0
 51 52  1  0  0  0  0
 51 57  1  0  0  0  0
 52 53  2  0  0  0  0
 52 56  1  0  0  0  0
 53 54  1  0  0  0  0
 54 55  2  0  0  0  0
M  END
>  <MODEL>
       1

$$$$
best_conformers_54.pdb
 OpenBabel02042510453D

 66 71  0  0  1  0  0  0  0  0999 V2000
    5.0530   -8.2230   25.4750 C   0  0  0  0  0  0  0  0  0  0  0  0
    4.5220   -7.0430   24.8210 N   0  0  0  0  0  0  0  0  0  0  0  0
    5.1860   -6.5430   23.7550 C   0  0  0  0  0  0  0  0  0  0  0  0
    6.2020   -7.0530   23.3080 O   0  0  0  0  0  0  0  0  0  0  0  0
    4.5840   -5.2770   23.1330 C   0  0  0  0  0  0  0  0  0  0  0  0
    5.1610   -4.0620   23.6670 N   0  0  0  0  0  0  0  0  0  0  0  0
    6.4840   -3.6530   23.2230 C   0  0  0  0  0  0  0  0  0  0  0  0
    6.5590   -2.1250   22.9830 C   0  0  2  0  0  0  0  0  0  0  0  0
    5.6930   -1.7450   21.7580 C   0  0  0  0  0  0  0  0  0  0  0  0
    4.5640   -2.1250   21.5270 O   0  0  0  0  0  0  0  0  0  0  0  0
    6.4010   -0.8710   20.9660 N   0  0  0  0  0  0  0  0  0  0  0  0
    5.8070   -0.2070   19.8590 C   0  0  0  0  0  0  0  0  0  0  0  0
    6.2570   -0.4590   18.5880 C   0  0  0  0  0  0  0  0  0  0  0  0
    5.7820    0.1290   17.4620 N   0  0  0  0  0  0  0  0  0  0  0  0
    4.8080    0.9990   17.6090 C   0  0  0  0  0  0  0  0  0  0  0  0
    4.2400    1.3610   18.8650 C   0  0  0  0  0  0  0  0  0  0  0  0
    3.1920    2.3210   18.9570 C   0  0  0  0  0  0  0  0  0  0  0  0
    2.6800    2.6690   20.1760 C   0  0  0  0  0  0  0  0  0  0  0  0
    3.2000    2.0850   21.3540 C   0  0  0  0  0  0  0  0  0  0  0  0
    4.2120    1.1610   21.2930 C   0  0  0  0  0  0  0  0  0  0  0  0
    4.7520    0.7540   20.0350 C   0  0  0  0  0  0  0  0  0  0  0  0
    4.6020    0.7280   22.2140 H   0  0  0  0  0  0  0  0  0  0  0  0
    2.7850    2.3710   22.3160 H   0  0  0  0  0  0  0  0  0  0  0  0
    1.8780    3.4000   20.2470 H   0  0  0  0  0  0  0  0  0  0  0  0
    2.8180    2.7740   18.0410 H   0  0  0  0  0  0  0  0  0  0  0  0
    4.4160    1.4590   16.7010 H   0  0  0  0  0  0  0  0  0  0  0  0
    7.0490   -1.1890   18.4290 H   0  0  0  0  0  0  0  0  0  0  0  0
    7.7590   -0.6200   21.4100 C   0  0  0  0  0  0  0  0  0  0  0  0
    7.9840   -1.5910   22.5980 C   0  0  2  0  0  0  0  0  0  0  0  0
    9.0630   -2.6480   22.2310 C   0  0  0  0  0  0  0  0  0  0  0  0
   10.3660   -2.0760   21.9610 N   0  0  0  0  0  0  0  0  0  0  0  0
   11.2330   -1.5730   22.8870 C   0  0  0  0  0  0  0  0  0  0  0  0
   11.0210   -1.7130   24.2750 C   0  0  0  0  0  0  0  0  0  0  0  0
   11.8640   -1.2150   25.1650 N   0  0  0  0  0  0  0  0  0  0  0  0
   12.9350   -0.5740   24.6910 C   0  0  0  0  0  0  0  0  0  0  0  0
   13.1500   -0.4370   23.3260 C   0  0  0  0  0  0  0  0  0  0  0  0
   12.3130   -0.9400   22.4180 N   0  0  0  0  0  0  0  0  0  0  0  0
   14.0250    0.0980   22.9510 H   0  0  0  0  0  0  0  0  0  0  0  0
   13.6320   -0.1750   25.4240 H   0  0  0  0  0  0  0  0  0  0  0  0
   10.1460   -2.2420   24.6490 H   0  0  0  0  0  0  0  0  0  0  0  0
   10.7040   -2.0020   21.0130 H   0  0  0  0  0  0  0  0  0  0  0  0
    8.7750   -3.1740   21.3170 H   0  0  0  0  0  0  0  0  0  0  0  0
    9.1510   -3.3930   23.0370 H   0  0  0  0  0  0  0  0  0  0  0  0
    8.4010   -1.0570   23.4620 H   0  0  0  0  0  0  0  0  0  0  0  0
    7.8830    0.4310   21.7090 H   0  0  0  0  0  0  0  0  0  0  0  0
    8.4560   -0.7980   20.5810 H   0  0  0  0  0  0  0  0  0  0  0  0
    5.9690   -1.4380   24.2190 C   0  0  0  0  0  0  0  0  0  0  0  0
    6.2590   -0.0910   24.4830 C   0  0  0  0  0  0  0  0  0  0  0  0
    5.6960    0.5410   25.5780 C   0  0  0  0  0  0  0  0  0  0  0  0
    6.0730    2.2120   25.8980 Cl  0  0  0  0  0  0  0  0  0  0  0  0
    4.8220   -0.1270   26.4330 C   0  0  0  0  0  0  0  0  0  0  0  0
    4.4950   -1.4400   26.1540 C   0  0  0  0  0  0  0  0  0  0  0  0
    5.0430   -2.0900   25.0490 C   0  0  0  0  0  0  0  0  0  0  0  0
    4.5580   -3.4750   24.7360 C   0  0  0  0  0  0  0  0  0  0  0  0
    3.6620   -4.0380   25.3660 O   0  0  0  0  0  0  0  0  0  0  0  0
    3.7910   -1.9940   26.7660 H   0  0  0  0  0  0  0  0  0  0  0  0
    4.3980    0.3930   27.2830 H   0  0  0  0  0  0  0  0  0  0  0  0
    6.9040    0.5000   23.8390 H   0  0  0  0  0  0  0  0  0  0  0  0
    6.6960   -4.2010   22.3000 H   0  0  0  0  0  0  0  0  0  0  0  0
    7.2250   -3.9310   23.9880 H   0  0  0  0  0  0  0  0  0  0  0  0
    4.7920   -5.3080   22.0590 H   0  0  0  0  0  0  0  0  0  0  0  0
    3.5030   -5.2290   23.2900 H   0  0  0  0  0  0  0  0  0  0  0  0
    3.6880   -6.5770   25.1510 H   0  0  0  0  0  0  0  0  0  0  0  0
    6.0590   -8.0300   25.8680 H   0  0  0  0  0  0  0  0  0  0  0  0
    4.3910   -8.5110   26.2930 H   0  0  0  0  0  0  0  0  0  0  0  0
    5.1330   -9.0300   24.7460 H   0  0  0  0  0  0  0  0  0  0  0  0
  1  2  1  0  0  0  0
  1 64  1  0  0  0  0
  1 65  1  0  0  0  0
  1 66  1  0  0  0  0
  2  3  1  0  0  0  0
  2 63  1  0  0  0  0
  3  4  2  0  0  0  0
  3  5  1  0  0  0  0
  5  6  1  0  0  0  0
  5 61  1  0  0  0  0
  5 62  1  0  0  0  0
  6  7  1  0  0  0  0
  6 54  1  0  0  0  0
  7  8  1  0  0  0  0
  7 59  1  0  0  0  0
  7 60  1  0  0  0  0
  8  9  1  6  0  0  0
  8 29  1  0  0  0  0
  8 47  1  0  0  0  0
  9 10  2  0  0  0  0
  9 11  1  0  0  0  0
 11 12  1  0  0  0  0
 11 28  1  0  0  0  0
 12 13  2  0  0  0  0
 12 21  1  0  0  0  0
 13 14  1  0  0  0  0
 13 27  1  0  0  0  0
 14 15  2  0  0  0  0
 15 16  1  0  0  0  0
 15 26  1  0  0  0  0
 16 17  2  0  0  0  0
 16 21  1  0  0  0  0
 17 18  1  0  0  0  0
 17 25  1  0  0  0  0
 18 19  2  0  0  0  0
 18 24  1  0  0  0  0
 19 20  1  0  0  0  0
 19 23  1  0  0  0  0
 20 21  2  0  0  0  0
 20 22  1  0  0  0  0
 28 29  1  0  0  0  0
 28 45  1  0  0  0  0
 28 46  1  0  0  0  0
 29 30  1  0  0  0  0
 29 44  1  1  0  0  0
 30 31  1  0  0  0  0
 30 42  1  0  0  0  0
 30 43  1  0  0  0  0
 31 32  1  0  0  0  0
 31 41  1  0  0  0  0
 32 33  2  0  0  0  0
 32 37  1  0  0  0  0
 33 34  1  0  0  0  0
 33 40  1  0  0  0  0
 34 35  2  0  0  0  0
 35 36  1  0  0  0  0
 35 39  1  0  0  0  0
 36 37  2  0  0  0  0
 36 38  1  0  0  0  0
 47 48  2  0  0  0  0
 47 53  1  0  0  0  0
 48 49  1  0  0  0  0
 48 58  1  0  0  0  0
 49 50  1  0  0  0  0
 49 51  2  0  0  0  0
 51 52  1  0  0  0  0
 51 57  1  0  0  0  0
 52 53  2  0  0  0  0
 52 56  1  0  0  0  0
 53 54  1  0  0  0  0
 54 55  2  0  0  0  0
M  END
>  <MODEL>
       2

$$$$
best_conformers_54.pdb
 OpenBabel02042510453D

 66 71  0  0  1  0  0  0  0  0999 V2000
    5.0610   -8.1670   25.5510 C   0  0  0  0  0  0  0  0  0  0  0  0
    4.5130   -7.0190   24.8500 N   0  0  0  0  0  0  0  0  0  0  0  0
    5.1780   -6.5230   23.7800 C   0  0  0  0  0  0  0  0  0  0  0  0
    6.1980   -7.0340   23.3380 O   0  0  0  0  0  0  0  0  0  0  0  0
    4.5700   -5.2640   23.1440 C   0  0  0  0  0  0  0  0  0  0  0  0
    5.1180   -4.0340   23.6720 N   0  0  0  0  0  0  0  0  0  0  0  0
    6.4540   -3.6320   23.2660 C   0  0  0  0  0  0  0  0  0  0  0  0
    6.5360   -2.1080   22.9940 C   0  0  2  0  0  0  0  0  0  0  0  0
    5.6890   -1.7490   21.7520 C   0  0  0  0  0  0  0  0  0  0  0  0
    4.5670   -2.1360   21.5070 O   0  0  0  0  0  0  0  0  0  0  0  0
    6.4040   -0.8810   20.9590 N   0  0  0  0  0  0  0  0  0  0  0  0
    5.8080   -0.2070   19.8560 C   0  0  0  0  0  0  0  0  0  0  0  0
    6.2560   -0.4580   18.5850 C   0  0  0  0  0  0  0  0  0  0  0  0
    5.7810    0.1320   17.4590 N   0  0  0  0  0  0  0  0  0  0  0  0
    4.8080    1.0010   17.6070 C   0  0  0  0  0  0  0  0  0  0  0  0
    4.2390    1.3610   18.8630 C   0  0  0  0  0  0  0  0  0  0  0  0
    3.1910    2.3210   18.9570 C   0  0  0  0  0  0  0  0  0  0  0  0
    2.6790    2.6690   20.1760 C   0  0  0  0  0  0  0  0  0  0  0  0
    3.1990    2.0840   21.3530 C   0  0  0  0  0  0  0  0  0  0  0  0
    4.2120    1.1590   21.2910 C   0  0  0  0  0  0  0  0  0  0  0  0
    4.7520    0.7530   20.0340 C   0  0  0  0  0  0  0  0  0  0  0  0
    4.6000    0.7250   22.2130 H   0  0  0  0  0  0  0  0  0  0  0  0
    2.7830    2.3690   22.3160 H   0  0  0  0  0  0  0  0  0  0  0  0
    1.8770    3.4000   20.2480 H   0  0  0  0  0  0  0  0  0  0  0  0
    2.8170    2.7750   18.0410 H   0  0  0  0  0  0  0  0  0  0  0  0
    4.4150    1.4610   16.7000 H   0  0  0  0  0  0  0  0  0  0  0  0
    7.0480   -1.1870   18.4280 H   0  0  0  0  0  0  0  0  0  0  0  0
    7.7490   -0.6070   21.4340 C   0  0  0  0  0  0  0  0  0  0  0  0
    7.9680   -1.5770   22.6230 C   0  0  2  0  0  0  0  0  0  0  0  0
    9.0530   -2.6310   22.2600 C   0  0  0  0  0  0  0  0  0  0  0  0
    9.5380   -3.4320   23.3610 N   0  0  0  0  0  0  0  0  0  0  0  0
   10.2720   -2.9820   24.4210 C   0  0  0  0  0  0  0  0  0  0  0  0
   10.8970   -1.7190   24.4240 C   0  0  0  0  0  0  0  0  0  0  0  0
   11.6060   -1.2930   25.4580 N   0  0  0  0  0  0  0  0  0  0  0  0
   11.7010   -2.1190   26.5060 C   0  0  0  0  0  0  0  0  0  0  0  0
   11.0900   -3.3630   26.5050 C   0  0  0  0  0  0  0  0  0  0  0  0
   10.3920   -3.8110   25.4590 N   0  0  0  0  0  0  0  0  0  0  0  0
   11.1600   -4.0220   27.3730 H   0  0  0  0  0  0  0  0  0  0  0  0
   12.2980   -1.7770   27.3460 H   0  0  0  0  0  0  0  0  0  0  0  0
   10.8200   -1.0640   23.5560 H   0  0  0  0  0  0  0  0  0  0  0  0
    9.3540   -4.4220   23.3990 H   0  0  0  0  0  0  0  0  0  0  0  0
    8.6620   -3.3310   21.5170 H   0  0  0  0  0  0  0  0  0  0  0  0
    9.9080   -2.1060   21.7970 H   0  0  0  0  0  0  0  0  0  0  0  0
    8.3730   -1.0460   23.4950 H   0  0  0  0  0  0  0  0  0  0  0  0
    7.8410    0.4430   21.7450 H   0  0  0  0  0  0  0  0  0  0  0  0
    8.4700   -0.7590   20.6220 H   0  0  0  0  0  0  0  0  0  0  0  0
    5.9310   -1.4030   24.2140 C   0  0  0  0  0  0  0  0  0  0  0  0
    6.2410   -0.0620   24.4860 C   0  0  0  0  0  0  0  0  0  0  0  0
    5.6570    0.5820   25.5640 C   0  0  0  0  0  0  0  0  0  0  0  0
    6.0520    2.2470   25.8930 Cl  0  0  0  0  0  0  0  0  0  0  0  0
    4.7480   -0.0690   26.3930 C   0  0  0  0  0  0  0  0  0  0  0  0
    4.4070   -1.3780   26.1090 C   0  0  0  0  0  0  0  0  0  0  0  0
    4.9730   -2.0390   25.0210 C   0  0  0  0  0  0  0  0  0  0  0  0
    4.4850   -3.4250   24.7100 C   0  0  0  0  0  0  0  0  0  0  0  0
    3.5660   -3.9710   25.3200 O   0  0  0  0  0  0  0  0  0  0  0  0
    3.6790   -1.9220   26.7010 H   0  0  0  0  0  0  0  0  0  0  0  0
    4.3070    0.4580   27.2300 H   0  0  0  0  0  0  0  0  0  0  0  0
    6.9180    0.5150   23.8630 H   0  0  0  0  0  0  0  0  0  0  0  0
    6.6950   -4.1990   22.3640 H   0  0  0  0  0  0  0  0  0  0  0  0
    7.1670   -3.8790   24.0620 H   0  0  0  0  0  0  0  0  0  0  0  0
    3.4860   -5.2250   23.2800 H   0  0  0  0  0  0  0  0  0  0  0  0
    4.7990   -5.3010   22.0740 H   0  0  0  0  0  0  0  0  0  0  0  0
    3.6950   -6.5320   25.1930 H   0  0  0  0  0  0  0  0  0  0  0  0
    4.4010   -8.4240   26.3840 H   0  0  0  0  0  0  0  0  0  0  0  0
    6.0700   -7.9530   25.9300 H   0  0  0  0  0  0  0  0  0  0  0  0
    5.1430   -9.0130   24.8650 H   0  0  0  0  0  0  0  0  0  0  0  0
  1  2  1  0  0  0  0
  1 64  1  0  0  0  0
  1 65  1  0  0  0  0
  1 66  1  0  0  0  0
  2  3  1  0  0  0  0
  2 63  1  0  0  0  0
  3  4  2  0  0  0  0
  3  5  1  0  0  0  0
  5  6  1  0  0  0  0
  5 61  1  0  0  0  0
  5 62  1  0  0  0  0
  6  7  1  0  0  0  0
  6 54  1  0  0  0  0
  7  8  1  0  0  0  0
  7 59  1  0  0  0  0
  7 60  1  0  0  0  0
  8  9  1  6  0  0  0
  8 29  1  0  0  0  0
  8 47  1  0  0  0  0
  9 10  2  0  0  0  0
  9 11  1  0  0  0  0
 11 12  1  0  0  0  0
 11 28  1  0  0  0  0
 12 13  2  0  0  0  0
 12 21  1  0  0  0  0
 13 14  1  0  0  0  0
 13 27  1  0  0  0  0
 14 15  2  0  0  0  0
 15 16  1  0  0  0  0
 15 26  1  0  0  0  0
 16 17  2  0  0  0  0
 16 21  1  0  0  0  0
 17 18  1  0  0  0  0
 17 25  1  0  0  0  0
 18 19  2  0  0  0  0
 18 24  1  0  0  0  0
 19 20  1  0  0  0  0
 19 23  1  0  0  0  0
 20 21  2  0  0  0  0
 20 22  1  0  0  0  0
 28 29  1  0  0  0  0
 28 45  1  0  0  0  0
 28 46  1  0  0  0  0
 29 30  1  0  0  0  0
 29 44  1  1  0  0  0
 30 31  1  0  0  0  0
 30 42  1  0  0  0  0
 30 43  1  0  0  0  0
 31 32  1  0  0  0  0
 31 41  1  0  0  0  0
 32 33  2  0  0  0  0
 32 37  1  0  0  0  0
 33 34  1  0  0  0  0
 33 40  1  0  0  0  0
 34 35  2  0  0  0  0
 35 36  1  0  0  0  0
 35 39  1  0  0  0  0
 36 37  2  0  0  0  0
 36 38  1  0  0  0  0
 47 48  2  0  0  0  0
 47 53  1  0  0  0  0
 48 49  1  0  0  0  0
 48 58  1  0  0  0  0
 49 50  1  0  0  0  0
 49 51  2  0  0  0  0
 51 52  1  0  0  0  0
 51 57  1  0  0  0  0
 52 53  2  0  0  0  0
 52 56  1  0  0  0  0
 53 54  1  0  0  0  0
 54 55  2  0  0  0  0
M  END
>  <MODEL>
       3

$$$$
