best_conformers_74.pdb
 OpenBabel02042510453D

 55 60  0  0  1  0  0  0  0  0999 V2000
    8.9950   -2.7020   22.1650 C   0  0  0  0  0  0  0  0  0  0  0  0
    7.9800   -1.6200   22.5720 C   0  0  1  0  0  0  0  0  0  0  0  0
    7.7520   -0.6230   21.4070 C   0  0  0  0  0  0  0  0  0  0  0  0
    6.3960   -0.8730   20.9580 N   0  0  0  0  0  0  0  0  0  0  0  0
    5.8030   -0.2060   19.8540 C   0  0  0  0  0  0  0  0  0  0  0  0
    6.2570   -0.4580   18.5850 C   0  0  0  0  0  0  0  0  0  0  0  0
    5.7820    0.1310   17.4590 N   0  0  0  0  0  0  0  0  0  0  0  0
    4.8080    1.0000   17.6080 C   0  0  0  0  0  0  0  0  0  0  0  0
    4.2390    1.3610   18.8610 C   0  0  0  0  0  0  0  0  0  0  0  0
    3.1920    2.3200   18.9570 C   0  0  0  0  0  0  0  0  0  0  0  0
    2.6790    2.6690   20.1750 C   0  0  0  0  0  0  0  0  0  0  0  0
    3.1990    2.0840   21.3540 C   0  0  0  0  0  0  0  0  0  0  0  0
    4.2110    1.1600   21.2900 C   0  0  0  0  0  0  0  0  0  0  0  0
    4.7500    0.7540   20.0330 C   0  0  0  0  0  0  0  0  0  0  0  0
    4.6000    0.7220   22.2090 H   0  0  0  0  0  0  0  0  0  0  0  0
    2.7850    2.3700   22.3170 H   0  0  0  0  0  0  0  0  0  0  0  0
    1.8760    3.4000   20.2470 H   0  0  0  0  0  0  0  0  0  0  0  0
    2.8180    2.7740   18.0410 H   0  0  0  0  0  0  0  0  0  0  0  0
    4.4150    1.4600   16.7000 H   0  0  0  0  0  0  0  0  0  0  0  0
    7.0500   -1.1890   18.4290 H   0  0  0  0  0  0  0  0  0  0  0  0
    5.6840   -1.7420   21.7530 C   0  0  0  0  0  0  0  0  0  0  0  0
    4.5530   -2.1170   21.5220 O   0  0  0  0  0  0  0  0  0  0  0  0
    6.5530   -2.1320   22.9690 C   0  0  1  0  0  0  0  0  0  0  0  0
    6.4820   -3.6570   23.1900 C   0  0  0  0  0  0  0  0  0  0  0  0
    5.1600   -4.0600   23.6210 N   0  0  0  0  0  0  0  0  0  0  0  0
    4.6070   -5.2850   23.0760 C   0  0  0  0  0  0  0  0  0  0  0  0
    5.1730   -6.5330   23.7090 C   0  0  0  0  0  0  0  0  0  0  0  0
    4.6720   -7.2080   24.8620 C   0  0  0  0  0  0  0  0  0  0  0  0
    5.5590   -8.2100   25.0380 C   0  0  0  0  0  0  0  0  0  0  0  0
    6.4950   -8.1810   24.0820 O   0  0  0  0  0  0  0  0  0  0  0  0
    6.2460   -7.1160   23.2450 N   0  0  0  0  0  0  0  0  0  0  0  0
    5.6860   -8.9850   25.7760 H   0  0  0  0  0  0  0  0  0  0  0  0
    3.7940   -6.9470   25.4330 H   0  0  0  0  0  0  0  0  0  0  0  0
    4.7950   -5.2770   21.9940 H   0  0  0  0  0  0  0  0  0  0  0  0
    3.5300   -5.2540   23.2480 H   0  0  0  0  0  0  0  0  0  0  0  0
    4.5730   -3.4900   24.7180 C   0  0  0  0  0  0  0  0  0  0  0  0
    3.6910   -4.0520   25.3560 O   0  0  0  0  0  0  0  0  0  0  0  0
    5.0660   -2.1170   25.0510 C   0  0  0  0  0  0  0  0  0  0  0  0
    4.5320   -1.4850   26.1750 C   0  0  0  0  0  0  0  0  0  0  0  0
    4.8640   -0.1770   26.4680 C   0  0  0  0  0  0  0  0  0  0  0  0
    5.7310    0.4880   25.6100 C   0  0  0  0  0  0  0  0  0  0  0  0
    6.0370    1.7700   25.8760 F   0  0  0  0  0  0  0  0  0  0  0  0
    6.2860   -0.1170   24.4990 C   0  0  0  0  0  0  0  0  0  0  0  0
    5.9840   -1.4560   24.2190 C   0  0  0  0  0  0  0  0  0  0  0  0
    6.9360    0.4810   23.8690 H   0  0  0  0  0  0  0  0  0  0  0  0
    4.4590    0.3500   27.3230 H   0  0  0  0  0  0  0  0  0  0  0  0
    3.8340   -2.0480   26.7870 H   0  0  0  0  0  0  0  0  0  0  0  0
    7.2310   -3.9520   23.9430 H   0  0  0  0  0  0  0  0  0  0  0  0
    6.6860   -4.1840   22.2560 H   0  0  0  0  0  0  0  0  0  0  0  0
    7.8710    0.4240   21.7250 H   0  0  0  0  0  0  0  0  0  0  0  0
    8.4610   -0.7900   20.5870 H   0  0  0  0  0  0  0  0  0  0  0  0
    8.4130   -1.1030   23.4370 H   0  0  0  0  0  0  0  0  0  0  0  0
    9.9470   -2.2360   21.8860 H   0  0  0  0  0  0  0  0  0  0  0  0
    9.2020   -3.3990   22.9830 H   0  0  0  0  0  0  0  0  0  0  0  0
    8.6460   -3.2840   21.3070 H   0  0  0  0  0  0  0  0  0  0  0  0
  1  2  1  0  0  0  0
  1 53  1  0  0  0  0
  1 54  1  0  0  0  0
  1 55  1  0  0  0  0
  2  3  1  0  0  0  0
  2 23  1  0  0  0  0
  2 52  1  1  0  0  0
  3  4  1  0  0  0  0
  3 50  1  0  0  0  0
  3 51  1  0  0  0  0
  4  5  1  0  0  0  0
  4 21  1  0  0  0  0
  5  6  2  0  0  0  0
  5 14  1  0  0  0  0
  6  7  1  0  0  0  0
  6 20  1  0  0  0  0
  7  8  2  0  0  0  0
  8  9  1  0  0  0  0
  8 19  1  0  0  0  0
  9 10  2  0  0  0  0
  9 14  1  0  0  0  0
 10 11  1  0  0  0  0
 10 18  1  0  0  0  0
 11 12  2  0  0  0  0
 11 17  1  0  0  0  0
 12 13  1  0  0  0  0
 12 16  1  0  0  0  0
 13 14  2  0  0  0  0
 13 15  1  0  0  0  0
 21 22  2  0  0  0  0
 23 21  1  6  0  0  0
 23 24  1  0  0  0  0
 23 44  1  0  0  0  0
 24 25  1  0  0  0  0
 24 48  1  0  0  0  0
 24 49  1  0  0  0  0
 25 26  1  0  0  0  0
 25 36  1  0  0  0  0
 26 27  1  0  0  0  0
 26 34  1  0  0  0  0
 26 35  1  0  0  0  0
 27 28  1  0  0  0  0
 27 31  2  0  0  0  0
 28 29  2  0  0  0  0
 28 33  1  0  0  0  0
 29 30  1  0  0  0  0
 29 32  1  0  0  0  0
 30 31  1  0  0  0  0
 36 37  2  0  0  0  0
 36 38  1  0  0  0  0
 38 39  2  0  0  0  0
 38 44  1  0  0  0  0
 39 40  1  0  0  0  0
 39 47  1  0  0  0  0
 40 41  2  0  0  0  0
 40 46  1  0  0  0  0
 41 42  1  0  0  0  0
 41 43  1  0  0  0  0
 43 44  2  0  0  0  0
 43 45  1  0  0  0  0
M  END
>  <MODEL>
       1

$$$$
best_conformers_74.pdb
 OpenBabel02042510453D

 55 60  0  0  1  0  0  0  0  0999 V2000
    6.8060   -3.6060   23.3070 C   0  0  0  0  0  0  0  0  0  0  0  0
    7.2650   -2.4670   22.4040 C   0  0  1  0  0  0  0  0  0  0  0  0
    6.2810   -2.1980   21.2570 C   0  0  0  0  0  0  0  0  0  0  0  0
    6.4530   -0.7900   20.9720 N   0  0  0  0  0  0  0  0  0  0  0  0
    5.8410   -0.1540   19.8660 C   0  0  0  0  0  0  0  0  0  0  0  0
    6.2600   -0.4590   18.5950 C   0  0  0  0  0  0  0  0  0  0  0  0
    5.7790    0.1140   17.4640 N   0  0  0  0  0  0  0  0  0  0  0  0
    4.8130    0.9930   17.6070 C   0  0  0  0  0  0  0  0  0  0  0  0
    4.2480    1.3630   18.8610 C   0  0  0  0  0  0  0  0  0  0  0  0
    3.1870    2.3050   18.9510 C   0  0  0  0  0  0  0  0  0  0  0  0
    2.6350    2.6180   20.1620 C   0  0  0  0  0  0  0  0  0  0  0  0
    3.1130    1.9990   21.3400 C   0  0  0  0  0  0  0  0  0  0  0  0
    4.1410    1.0930   21.2800 C   0  0  0  0  0  0  0  0  0  0  0  0
    4.7560    0.7670   20.0360 C   0  0  0  0  0  0  0  0  0  0  0  0
    4.4970    0.6290   22.1950 H   0  0  0  0  0  0  0  0  0  0  0  0
    2.6690    2.2510   22.2990 H   0  0  0  0  0  0  0  0  0  0  0  0
    1.8300    3.3460   20.2300 H   0  0  0  0  0  0  0  0  0  0  0  0
    2.8290    2.7710   18.0360 H   0  0  0  0  0  0  0  0  0  0  0  0
    4.4220    1.4550   16.7000 H   0  0  0  0  0  0  0  0  0  0  0  0
    7.0520   -1.1940   18.4490 H   0  0  0  0  0  0  0  0  0  0  0  0
    7.1030   -0.0950   21.9660 C   0  0  0  0  0  0  0  0  0  0  0  0
    7.2900    1.1040   21.9480 O   0  0  0  0  0  0  0  0  0  0  0  0
    7.4890   -1.0730   23.0880 C   0  0  1  0  0  0  0  0  0  0  0  0
    6.5540   -0.7560   24.2760 C   0  0  0  0  0  0  0  0  0  0  0  0
    6.9770   -1.3490   25.5300 N   0  0  0  0  0  0  0  0  0  0  0  0
    5.9600   -1.6930   26.5060 C   0  0  0  0  0  0  0  0  0  0  0  0
    5.5660   -3.1500   26.5140 C   0  0  0  0  0  0  0  0  0  0  0  0
    6.2370   -4.2750   27.0980 C   0  0  0  0  0  0  0  0  0  0  0  0
    5.3590   -5.2870   26.8850 C   0  0  0  0  0  0  0  0  0  0  0  0
    4.2820   -4.8550   26.2210 O   0  0  0  0  0  0  0  0  0  0  0  0
    4.4170   -3.5010   25.9910 N   0  0  0  0  0  0  0  0  0  0  0  0
    5.3530   -6.3450   27.1080 H   0  0  0  0  0  0  0  0  0  0  0  0
    7.2050   -4.3010   27.5830 H   0  0  0  0  0  0  0  0  0  0  0  0
    6.3660   -1.4330   27.4820 H   0  0  0  0  0  0  0  0  0  0  0  0
    5.0710   -1.0820   26.3120 H   0  0  0  0  0  0  0  0  0  0  0  0
    8.2860   -1.5390   25.8740 C   0  0  0  0  0  0  0  0  0  0  0  0
    8.6140   -2.0580   26.9310 O   0  0  0  0  0  0  0  0  0  0  0  0
    9.2940   -1.1140   24.8660 C   0  0  0  0  0  0  0  0  0  0  0  0
   10.6300   -1.0420   25.2610 C   0  0  0  0  0  0  0  0  0  0  0  0
   11.6160   -0.7410   24.3390 C   0  0  0  0  0  0  0  0  0  0  0  0
   11.2360   -0.5420   23.0150 C   0  0  0  0  0  0  0  0  0  0  0  0
   12.1890   -0.2740   22.1070 F   0  0  0  0  0  0  0  0  0  0  0  0
    9.9210   -0.6170   22.5980 C   0  0  0  0  0  0  0  0  0  0  0  0
    8.9230   -0.8900   23.5380 C   0  0  0  0  0  0  0  0  0  0  0  0
    9.6810   -0.4700   21.5500 H   0  0  0  0  0  0  0  0  0  0  0  0
   12.6660   -0.6800   24.6090 H   0  0  0  0  0  0  0  0  0  0  0  0
   10.8620   -1.2400   26.3040 H   0  0  0  0  0  0  0  0  0  0  0  0
    6.4980    0.3400   24.3540 H   0  0  0  0  0  0  0  0  0  0  0  0
    5.5450   -1.1310   24.0710 H   0  0  0  0  0  0  0  0  0  0  0  0
    5.2450   -2.4180   21.5570 H   0  0  0  0  0  0  0  0  0  0  0  0
    6.4880   -2.7870   20.3640 H   0  0  0  0  0  0  0  0  0  0  0  0
    8.2380   -2.7320   21.9640 H   0  0  0  0  0  0  0  0  0  0  0  0
    7.4720   -3.7300   24.1670 H   0  0  0  0  0  0  0  0  0  0  0  0
    6.7800   -4.5540   22.7580 H   0  0  0  0  0  0  0  0  0  0  0  0
    5.7970   -3.4130   23.6820 H   0  0  0  0  0  0  0  0  0  0  0  0
  1  2  1  0  0  0  0
  1 53  1  0  0  0  0
  1 54  1  0  0  0  0
  1 55  1  0  0  0  0
  2  3  1  0  0  0  0
  2 23  1  0  0  0  0
  2 52  1  6  0  0  0
  3  4  1  0  0  0  0
  3 50  1  0  0  0  0
  3 51  1  0  0  0  0
  4  5  1  0  0  0  0
  4 21  1  0  0  0  0
  5  6  2  0  0  0  0
  5 14  1  0  0  0  0
  6  7  1  0  0  0  0
  6 20  1  0  0  0  0
  7  8  2  0  0  0  0
  8  9  1  0  0  0  0
  8 19  1  0  0  0  0
  9 10  2  0  0  0  0
  9 14  1  0  0  0  0
 10 11  1  0  0  0  0
 10 18  1  0  0  0  0
 11 12  2  0  0  0  0
 11 17  1  0  0  0  0
 12 13  1  0  0  0  0
 12 16  1  0  0  0  0
 13 14  2  0  0  0  0
 13 15  1  0  0  0  0
 21 22  2  0  0  0  0
 23 21  1  6  0  0  0
 23 24  1  0  0  0  0
 23 44  1  0  0  0  0
 24 25  1  0  0  0  0
 24 48  1  0  0  0  0
 24 49  1  0  0  0  0
 25 26  1  0  0  0  0
 25 36  1  0  0  0  0
 26 27  1  0  0  0  0
 26 34  1  0  0  0  0
 26 35  1  0  0  0  0
 27 28  1  0  0  0  0
 27 31  2  0  0  0  0
 28 29  2  0  0  0  0
 28 33  1  0  0  0  0
 29 30  1  0  0  0  0
 29 32  1  0  0  0  0
 30 31  1  0  0  0  0
 36 37  2  0  0  0  0
 36 38  1  0  0  0  0
 38 39  2  0  0  0  0
 38 44  1  0  0  0  0
 39 40  1  0  0  0  0
 39 47  1  0  0  0  0
 40 41  2  0  0  0  0
 40 46  1  0  0  0  0
 41 42  1  0  0  0  0
 41 43  1  0  0  0  0
 43 44  2  0  0  0  0
 43 45  1  0  0  0  0
M  END
>  <MODEL>
       2

$$$$
best_conformers_74.pdb
 OpenBabel02042510453D

 55 60  0  0  1  0  0  0  0  0999 V2000
    8.9950   -2.7020   22.1640 C   0  0  0  0  0  0  0  0  0  0  0  0
    7.9780   -1.6200   22.5700 C   0  0  1  0  0  0  0  0  0  0  0  0
    7.7520   -0.6230   21.4040 C   0  0  0  0  0  0  0  0  0  0  0  0
    6.3950   -0.8750   20.9560 N   0  0  0  0  0  0  0  0  0  0  0  0
    5.8030   -0.2090   19.8540 C   0  0  0  0  0  0  0  0  0  0  0  0
    6.2600   -0.4620   18.5860 C   0  0  0  0  0  0  0  0  0  0  0  0
    5.7880    0.1300   17.4610 N   0  0  0  0  0  0  0  0  0  0  0  0
    4.8130    0.9970   17.6130 C   0  0  0  0  0  0  0  0  0  0  0  0
    4.2410    1.3580   18.8650 C   0  0  0  0  0  0  0  0  0  0  0  0
    3.1940    2.3180   18.9590 C   0  0  0  0  0  0  0  0  0  0  0  0
    2.6790    2.6690   20.1760 C   0  0  0  0  0  0  0  0  0  0  0  0
    3.2000    2.0860   21.3560 C   0  0  0  0  0  0  0  0  0  0  0  0
    4.2120    1.1600   21.2930 C   0  0  0  0  0  0  0  0  0  0  0  0
    4.7500    0.7510   20.0370 C   0  0  0  0  0  0  0  0  0  0  0  0
    4.5970    0.7240   22.2140 H   0  0  0  0  0  0  0  0  0  0  0  0
    2.7830    2.3730   22.3180 H   0  0  0  0  0  0  0  0  0  0  0  0
    1.8770    3.4010   20.2440 H   0  0  0  0  0  0  0  0  0  0  0  0
    2.8220    2.7690   18.0400 H   0  0  0  0  0  0  0  0  0  0  0  0
    4.4200    1.4530   16.7040 H   0  0  0  0  0  0  0  0  0  0  0  0
    7.0560   -1.1890   18.4320 H   0  0  0  0  0  0  0  0  0  0  0  0
    5.6810   -1.7440   21.7480 C   0  0  0  0  0  0  0  0  0  0  0  0
    4.5520   -2.1240   21.5100 O   0  0  0  0  0  0  0  0  0  0  0  0
    6.5470   -2.1280   22.9670 C   0  0  1  0  0  0  0  0  0  0  0  0
    6.4660   -3.6480   23.1980 C   0  0  0  0  0  0  0  0  0  0  0  0
    5.1450   -4.0440   23.6470 N   0  0  0  0  0  0  0  0  0  0  0  0
    4.5620   -5.2610   23.1320 C   0  0  0  0  0  0  0  0  0  0  0  0
    5.1150   -6.5010   23.7860 C   0  0  0  0  0  0  0  0  0  0  0  0
    6.3270   -7.1810   23.4600 C   0  0  0  0  0  0  0  0  0  0  0  0
    6.3560   -8.1900   24.3510 C   0  0  0  0  0  0  0  0  0  0  0  0
    5.2800   -8.1560   25.1450 O   0  0  0  0  0  0  0  0  0  0  0  0
    4.4960   -7.0880   24.7720 N   0  0  0  0  0  0  0  0  0  0  0  0
    7.0420   -8.9980   24.5060 H   0  0  0  0  0  0  0  0  0  0  0  0
    7.0360   -6.9730   22.6750 H   0  0  0  0  0  0  0  0  0  0  0  0
    3.4810   -5.2050   23.2840 H   0  0  0  0  0  0  0  0  0  0  0  0
    4.7830   -5.2890   22.0600 H   0  0  0  0  0  0  0  0  0  0  0  0
    4.5650   -3.4640   24.7370 C   0  0  0  0  0  0  0  0  0  0  0  0
    3.6670   -4.0020   25.3690 O   0  0  0  0  0  0  0  0  0  0  0  0
    5.0790   -2.1020   25.0580 C   0  0  0  0  0  0  0  0  0  0  0  0
    4.5430   -1.4750   26.1800 C   0  0  0  0  0  0  0  0  0  0  0  0
    4.8750   -0.1670   26.4660 C   0  0  0  0  0  0  0  0  0  0  0  0
    5.7410    0.4930   25.6040 C   0  0  0  0  0  0  0  0  0  0  0  0
    6.0480    1.7750   25.8690 F   0  0  0  0  0  0  0  0  0  0  0  0
    6.2960   -0.1100   24.4930 C   0  0  0  0  0  0  0  0  0  0  0  0
    5.9900   -1.4480   24.2170 C   0  0  0  0  0  0  0  0  0  0  0  0
    6.9470    0.4870   23.8630 H   0  0  0  0  0  0  0  0  0  0  0  0
    4.4720    0.3620   27.3180 H   0  0  0  0  0  0  0  0  0  0  0  0
    3.8450   -2.0480   26.7810 H   0  0  0  0  0  0  0  0  0  0  0  0
    7.2210   -3.9370   23.9460 H   0  0  0  0  0  0  0  0  0  0  0  0
    6.6610   -4.1660   22.2580 H   0  0  0  0  0  0  0  0  0  0  0  0
    7.8700    0.4260   21.7170 H   0  0  0  0  0  0  0  0  0  0  0  0
    8.4610   -0.7920   20.5840 H   0  0  0  0  0  0  0  0  0  0  0  0
    8.4080   -1.1010   23.4350 H   0  0  0  0  0  0  0  0  0  0  0  0
    9.2040   -3.3960   22.9840 H   0  0  0  0  0  0  0  0  0  0  0  0
    8.6470   -3.2870   21.3070 H   0  0  0  0  0  0  0  0  0  0  0  0
    9.9470   -2.2350   21.8830 H   0  0  0  0  0  0  0  0  0  0  0  0
  1  2  1  0  0  0  0
  1 53  1  0  0  0  0
  1 54  1  0  0  0  0
  1 55  1  0  0  0  0
  2  3  1  0  0  0  0
  2 23  1  0  0  0  0
  2 52  1  1  0  0  0
  3  4  1  0  0  0  0
  3 50  1  0  0  0  0
  3 51  1  0  0  0  0
  4  5  1  0  0  0  0
  4 21  1  0  0  0  0
  5  6  2  0  0  0  0
  5 14  1  0  0  0  0
  6  7  1  0  0  0  0
  6 20  1  0  0  0  0
  7  8  2  0  0  0  0
  8  9  1  0  0  0  0
  8 19  1  0  0  0  0
  9 10  2  0  0  0  0
  9 14  1  0  0  0  0
 10 11  1  0  0  0  0
 10 18  1  0  0  0  0
 11 12  2  0  0  0  0
 11 17  1  0  0  0  0
 12 13  1  0  0  0  0
 12 16  1  0  0  0  0
 13 14  2  0  0  0  0
 13 15  1  0  0  0  0
 21 22  2  0  0  0  0
 23 21  1  6  0  0  0
 23 24  1  0  0  0  0
 23 44  1  0  0  0  0
 24 25  1  0  0  0  0
 24 48  1  0  0  0  0
 24 49  1  0  0  0  0
 25 26  1  0  0  0  0
 25 36  1  0  0  0  0
 26 27  1  0  0  0  0
 26 34  1  0  0  0  0
 26 35  1  0  0  0  0
 27 28  1  0  0  0  0
 27 31  2  0  0  0  0
 28 29  2  0  0  0  0
 28 33  1  0  0  0  0
 29 30  1  0  0  0  0
 29 32  1  0  0  0  0
 30 31  1  0  0  0  0
 36 37  2  0  0  0  0
 36 38  1  0  0  0  0
 38 39  2  0  0  0  0
 38 44  1  0  0  0  0
 39 40  1  0  0  0  0
 39 47  1  0  0  0  0
 40 41  2  0  0  0  0
 40 46  1  0  0  0  0
 41 42  1  0  0  0  0
 41 43  1  0  0  0  0
 43 44  2  0  0  0  0
 43 45  1  0  0  0  0
M  END
>  <MODEL>
       3

$$$$
best_conformers_74.pdb
 OpenBabel02042510453D

 55 60  0  0  1  0  0  0  0  0999 V2000
    6.8090   -3.6340   23.3130 C   0  0  0  0  0  0  0  0  0  0  0  0
    7.2640   -2.4810   22.4100 C   0  0  1  0  0  0  0  0  0  0  0  0
    6.2910   -2.2070   21.2520 C   0  0  0  0  0  0  0  0  0  0  0  0
    6.4520   -0.7900   20.9730 N   0  0  0  0  0  0  0  0  0  0  0  0
    5.8460   -0.1520   19.8630 C   0  0  0  0  0  0  0  0  0  0  0  0
    6.2590   -0.4570   18.5900 C   0  0  0  0  0  0  0  0  0  0  0  0
    5.7720    0.1150   17.4630 N   0  0  0  0  0  0  0  0  0  0  0  0
    4.8080    0.9960   17.6090 C   0  0  0  0  0  0  0  0  0  0  0  0
    4.2420    1.3650   18.8630 C   0  0  0  0  0  0  0  0  0  0  0  0
    3.1800    2.3090   18.9540 C   0  0  0  0  0  0  0  0  0  0  0  0
    2.6300    2.6210   20.1680 C   0  0  0  0  0  0  0  0  0  0  0  0
    3.1130    1.9970   21.3410 C   0  0  0  0  0  0  0  0  0  0  0  0
    4.1400    1.0910   21.2770 C   0  0  0  0  0  0  0  0  0  0  0  0
    4.7550    0.7660   20.0320 C   0  0  0  0  0  0  0  0  0  0  0  0
    4.4990    0.6250   22.1870 H   0  0  0  0  0  0  0  0  0  0  0  0
    2.6730    2.2500   22.3020 H   0  0  0  0  0  0  0  0  0  0  0  0
    1.8260    3.3500   20.2370 H   0  0  0  0  0  0  0  0  0  0  0  0
    2.8210    2.7760   18.0400 H   0  0  0  0  0  0  0  0  0  0  0  0
    4.4210    1.4580   16.7010 H   0  0  0  0  0  0  0  0  0  0  0  0
    7.0440   -1.1950   18.4340 H   0  0  0  0  0  0  0  0  0  0  0  0
    7.0970   -0.0930   21.9710 C   0  0  0  0  0  0  0  0  0  0  0  0
    7.2850    1.1080   21.9630 O   0  0  0  0  0  0  0  0  0  0  0  0
    7.4770   -1.0780   23.0890 C   0  0  1  0  0  0  0  0  0  0  0  0
    6.5330   -0.7980   24.2810 C   0  0  0  0  0  0  0  0  0  0  0  0
    6.9340   -1.5340   25.4630 N   0  0  0  0  0  0  0  0  0  0  0  0
    5.9040   -1.9470   26.4050 C   0  0  0  0  0  0  0  0  0  0  0  0
    5.4430   -0.8360   27.3170 C   0  0  0  0  0  0  0  0  0  0  0  0
    5.9330   -0.5230   28.6210 C   0  0  0  0  0  0  0  0  0  0  0  0
    5.2130    0.5740   28.9680 C   0  0  0  0  0  0  0  0  0  0  0  0
    4.3500    0.8830   27.9920 O   0  0  0  0  0  0  0  0  0  0  0  0
    4.4960   -0.0120   26.9550 N   0  0  0  0  0  0  0  0  0  0  0  0
    5.1980    1.2450   29.8130 H   0  0  0  0  0  0  0  0  0  0  0  0
    6.6830   -1.0720   29.1640 H   0  0  0  0  0  0  0  0  0  0  0  0
    6.3300   -2.7510   27.0060 H   0  0  0  0  0  0  0  0  0  0  0  0
    5.0490   -2.3330   25.8340 H   0  0  0  0  0  0  0  0  0  0  0  0
    8.2380   -1.5580   25.8820 C   0  0  0  0  0  0  0  0  0  0  0  0
    8.5520   -1.9740   26.9850 O   0  0  0  0  0  0  0  0  0  0  0  0
    9.2610   -1.1020   24.8970 C   0  0  0  0  0  0  0  0  0  0  0  0
   10.5900   -0.9920   25.3110 C   0  0  0  0  0  0  0  0  0  0  0  0
   11.5850   -0.6890   24.3970 C   0  0  0  0  0  0  0  0  0  0  0  0
   11.2250   -0.5120   23.0660 C   0  0  0  0  0  0  0  0  0  0  0  0
   12.1870   -0.2310   22.1730 F   0  0  0  0  0  0  0  0  0  0  0  0
    9.9190   -0.6150   22.6310 C   0  0  0  0  0  0  0  0  0  0  0  0
    8.9080   -0.8860   23.5610 C   0  0  0  0  0  0  0  0  0  0  0  0
    9.6990   -0.4730   21.5790 H   0  0  0  0  0  0  0  0  0  0  0  0
   12.6290   -0.6060   24.6780 H   0  0  0  0  0  0  0  0  0  0  0  0
   10.8160   -1.1830   26.3550 H   0  0  0  0  0  0  0  0  0  0  0  0
    5.5020   -1.0960   24.0340 H   0  0  0  0  0  0  0  0  0  0  0  0
    6.5560    0.2880   24.4690 H   0  0  0  0  0  0  0  0  0  0  0  0
    6.5220   -2.7870   20.3590 H   0  0  0  0  0  0  0  0  0  0  0  0
    5.2530   -2.4390   21.5370 H   0  0  0  0  0  0  0  0  0  0  0  0
    8.2470   -2.7390   21.9880 H   0  0  0  0  0  0  0  0  0  0  0  0
    5.8150   -3.4400   23.7320 H   0  0  0  0  0  0  0  0  0  0  0  0
    7.4970   -3.7780   24.1510 H   0  0  0  0  0  0  0  0  0  0  0  0
    6.7530   -4.5710   22.7500 H   0  0  0  0  0  0  0  0  0  0  0  0
  1  2  1  0  0  0  0
  1 53  1  0  0  0  0
  1 54  1  0  0  0  0
  1 55  1  0  0  0  0
  2  3  1  0  0  0  0
  2 23  1  0  0  0  0
  2 52  1  6  0  0  0
  3  4  1  0  0  0  0
  3 50  1  0  0  0  0
  3 51  1  0  0  0  0
  4  5  1  0  0  0  0
  4 21  1  0  0  0  0
  5  6  2  0  0  0  0
  5 14  1  0  0  0  0
  6  7  1  0  0  0  0
  6 20  1  0  0  0  0
  7  8  2  0  0  0  0
  8  9  1  0  0  0  0
  8 19  1  0  0  0  0
  9 10  2  0  0  0  0
  9 14  1  0  0  0  0
 10 11  1  0  0  0  0
 10 18  1  0  0  0  0
 11 12  2  0  0  0  0
 11 17  1  0  0  0  0
 12 13  1  0  0  0  0
 12 16  1  0  0  0  0
 13 14  2  0  0  0  0
 13 15  1  0  0  0  0
 21 22  2  0  0  0  0
 23 21  1  6  0  0  0
 23 24  1  0  0  0  0
 23 44  1  0  0  0  0
 24 25  1  0  0  0  0
 24 48  1  0  0  0  0
 24 49  1  0  0  0  0
 25 26  1  0  0  0  0
 25 36  1  0  0  0  0
 26 27  1  0  0  0  0
 26 34  1  0  0  0  0
 26 35  1  0  0  0  0
 27 28  1  0  0  0  0
 27 31  2  0  0  0  0
 28 29  2  0  0  0  0
 28 33  1  0  0  0  0
 29 30  1  0  0  0  0
 29 32  1  0  0  0  0
 30 31  1  0  0  0  0
 36 37  2  0  0  0  0
 36 38  1  0  0  0  0
 38 39  2  0  0  0  0
 38 44  1  0  0  0  0
 39 40  1  0  0  0  0
 39 47  1  0  0  0  0
 40 41  2  0  0  0  0
 40 46  1  0  0  0  0
 41 42  1  0  0  0  0
 41 43  1  0  0  0  0
 43 44  2  0  0  0  0
 43 45  1  0  0  0  0
M  END
>  <MODEL>
       4

$$$$
