best_conformers_75.pdb
 OpenBabel02042510453D

 70 75  0  0  1  0  0  0  0  0999 V2000
    4.7650   -2.4090   34.1780 C   0  0  0  0  0  0  0  0  0  0  0  0
    6.0610   -1.8540   34.2370 O   0  0  0  0  0  0  0  0  0  0  0  0
    6.4380   -1.0340   33.2180 C   0  0  0  0  0  0  0  0  0  0  0  0
    7.5910   -0.2870   33.4650 C   0  0  0  0  0  0  0  0  0  0  0  0
    8.0070    0.6510   32.5450 C   0  0  0  0  0  0  0  0  0  0  0  0
    7.3370    0.7890   31.3300 C   0  0  0  0  0  0  0  0  0  0  0  0
    6.2490   -0.0320   31.0230 C   0  0  0  0  0  0  0  0  0  0  0  0
    5.6210    0.0540   29.6430 C   0  0  0  0  0  0  0  0  0  0  0  0
    5.9870   -0.9960   28.6950 N   0  0  0  0  0  0  0  0  0  0  0  0
    5.4220   -0.9190   27.4480 C   0  0  0  0  0  0  0  0  0  0  0  0
    4.6130   -0.0600   27.1440 O   0  0  0  0  0  0  0  0  0  0  0  0
    5.8480   -2.0060   26.4580 C   0  0  0  0  0  0  0  0  0  0  0  0
    6.8480   -1.5450   25.5110 N   0  0  0  0  0  0  0  0  0  0  0  0
    6.4660   -0.8480   24.2920 C   0  0  0  0  0  0  0  0  0  0  0  0
    7.4190   -1.1380   23.1010 C   0  0  2  0  0  0  0  0  0  0  0  0
    7.0620   -0.1340   21.9930 C   0  0  0  0  0  0  0  0  0  0  0  0
    7.2560    1.0640   21.9960 O   0  0  0  0  0  0  0  0  0  0  0  0
    6.4230   -0.8100   20.9800 N   0  0  0  0  0  0  0  0  0  0  0  0
    5.8350   -0.1600   19.8780 C   0  0  0  0  0  0  0  0  0  0  0  0
    6.2750   -0.4630   18.6150 C   0  0  0  0  0  0  0  0  0  0  0  0
    5.8070    0.1060   17.4790 N   0  0  0  0  0  0  0  0  0  0  0  0
    4.8360    0.9810   17.6170 C   0  0  0  0  0  0  0  0  0  0  0  0
    4.2610    1.3510   18.8670 C   0  0  0  0  0  0  0  0  0  0  0  0
    3.2030    2.2940   18.9450 C   0  0  0  0  0  0  0  0  0  0  0  0
    2.6410    2.6080   20.1510 C   0  0  0  0  0  0  0  0  0  0  0  0
    3.1040    1.9950   21.3370 C   0  0  0  0  0  0  0  0  0  0  0  0
    4.1330    1.0900   21.2910 C   0  0  0  0  0  0  0  0  0  0  0  0
    4.7540    0.7590   20.0490 C   0  0  0  0  0  0  0  0  0  0  0  0
    4.4810    0.6380   22.2160 H   0  0  0  0  0  0  0  0  0  0  0  0
    2.6450    2.2500   22.2880 H   0  0  0  0  0  0  0  0  0  0  0  0
    1.8340    3.3340   20.2050 H   0  0  0  0  0  0  0  0  0  0  0  0
    2.8580    2.7550   18.0240 H   0  0  0  0  0  0  0  0  0  0  0  0
    4.4460    1.4380   16.7080 H   0  0  0  0  0  0  0  0  0  0  0  0
    7.0740   -1.1930   18.4930 H   0  0  0  0  0  0  0  0  0  0  0  0
    6.2060   -2.2140   21.2480 C   0  0  0  0  0  0  0  0  0  0  0  0
    7.2080   -2.5130   22.3670 C   0  0  2  0  0  0  0  0  0  0  0  0
    6.7900   -3.6940   23.2300 C   0  0  0  0  0  0  0  0  0  0  0  0
    7.4970   -3.8540   24.0490 H   0  0  0  0  0  0  0  0  0  0  0  0
    5.8000   -3.5180   23.6660 H   0  0  0  0  0  0  0  0  0  0  0  0
    6.7340   -4.6100   22.6330 H   0  0  0  0  0  0  0  0  0  0  0  0
    8.1740   -2.7390   21.8930 H   0  0  0  0  0  0  0  0  0  0  0  0
    6.3710   -2.7940   20.3380 H   0  0  0  0  0  0  0  0  0  0  0  0
    5.1690   -2.4050   21.5640 H   0  0  0  0  0  0  0  0  0  0  0  0
    8.8380   -0.9660   23.5910 C   0  0  0  0  0  0  0  0  0  0  0  0
    9.8620   -0.6470   22.6940 C   0  0  0  0  0  0  0  0  0  0  0  0
   11.1650   -0.5450   23.1490 C   0  0  0  0  0  0  0  0  0  0  0  0
   12.4320   -0.1590   22.0240 Cl  0  0  0  0  0  0  0  0  0  0  0  0
   11.4950   -0.7650   24.4870 C   0  0  0  0  0  0  0  0  0  0  0  0
   10.4870   -1.1080   25.3660 C   0  0  0  0  0  0  0  0  0  0  0  0
    9.1730   -1.2150   24.9220 C   0  0  0  0  0  0  0  0  0  0  0  0
    8.1470   -1.6810   25.8950 C   0  0  0  0  0  0  0  0  0  0  0  0
    8.4520   -2.1900   26.9670 O   0  0  0  0  0  0  0  0  0  0  0  0
   10.6790   -1.3140   26.4140 H   0  0  0  0  0  0  0  0  0  0  0  0
   12.5260   -0.6860   24.8160 H   0  0  0  0  0  0  0  0  0  0  0  0
    9.6340   -0.4760   21.6480 H   0  0  0  0  0  0  0  0  0  0  0  0
    6.4650    0.2410   24.4490 H   0  0  0  0  0  0  0  0  0  0  0  0
    5.4420   -1.1400   24.0330 H   0  0  0  0  0  0  0  0  0  0  0  0
    4.9630   -2.3260   25.9020 H   0  0  0  0  0  0  0  0  0  0  0  0
    6.2840   -2.8590   26.9840 H   0  0  0  0  0  0  0  0  0  0  0  0
    6.8370   -1.5310   28.8170 H   0  0  0  0  0  0  0  0  0  0  0  0
    5.8500    1.0290   29.1950 H   0  0  0  0  0  0  0  0  0  0  0  0
    4.5330    0.0210   29.7130 H   0  0  0  0  0  0  0  0  0  0  0  0
    5.7540   -0.8990   32.0090 C   0  0  0  0  0  0  0  0  0  0  0  0
    4.8170   -1.4230   31.8350 H   0  0  0  0  0  0  0  0  0  0  0  0
    7.6780    1.5250   30.6020 H   0  0  0  0  0  0  0  0  0  0  0  0
    8.8720    1.2630   32.7980 H   0  0  0  0  0  0  0  0  0  0  0  0
    8.0990   -0.4510   34.4070 H   0  0  0  0  0  0  0  0  0  0  0  0
    4.6910   -3.1450   33.3590 H   0  0  0  0  0  0  0  0  0  0  0  0
    4.6200   -2.9130   35.1420 H   0  0  0  0  0  0  0  0  0  0  0  0
    4.0110   -1.6150   34.0440 H   0  0  0  0  0  0  0  0  0  0  0  0
  1  2  1  0  0  0  0
  1 68  1  0  0  0  0
  1 69  1  0  0  0  0
  1 70  1  0  0  0  0
  2  3  1  0  0  0  0
  3  4  2  0  0  0  0
  3 63  1  0  0  0  0
  4  5  1  0  0  0  0
  4 67  1  0  0  0  0
  5  6  2  0  0  0  0
  5 66  1  0  0  0  0
  6  7  1  0  0  0  0
  6 65  1  0  0  0  0
  7  8  1  0  0  0  0
  7 63  2  0  0  0  0
  8  9  1  0  0  0  0
  8 61  1  0  0  0  0
  8 62  1  0  0  0  0
  9 10  1  0  0  0  0
  9 60  1  0  0  0  0
 10 11  2  0  0  0  0
 10 12  1  0  0  0  0
 12 13  1  0  0  0  0
 12 58  1  0  0  0  0
 12 59  1  0  0  0  0
 13 14  1  0  0  0  0
 13 51  1  0  0  0  0
 14 15  1  0  0  0  0
 14 56  1  0  0  0  0
 14 57  1  0  0  0  0
 15 16  1  6  0  0  0
 15 36  1  0  0  0  0
 15 44  1  0  0  0  0
 16 17  2  0  0  0  0
 16 18  1  0  0  0  0
 18 19  1  0  0  0  0
 18 35  1  0  0  0  0
 19 20  2  0  0  0  0
 19 28  1  0  0  0  0
 20 21  1  0  0  0  0
 20 34  1  0  0  0  0
 21 22  2  0  0  0  0
 22 23  1  0  0  0  0
 22 33  1  0  0  0  0
 23 24  2  0  0  0  0
 23 28  1  0  0  0  0
 24 25  1  0  0  0  0
 24 32  1  0  0  0  0
 25 26  2  0  0  0  0
 25 31  1  0  0  0  0
 26 27  1  0  0  0  0
 26 30  1  0  0  0  0
 27 28  2  0  0  0  0
 27 29  1  0  0  0  0
 35 36  1  0  0  0  0
 35 42  1  0  0  0  0
 35 43  1  0  0  0  0
 36 37  1  0  0  0  0
 36 41  1  6  0  0  0
 37 38  1  0  0  0  0
 37 39  1  0  0  0  0
 37 40  1  0  0  0  0
 44 45  2  0  0  0  0
 44 50  1  0  0  0  0
 45 46  1  0  0  0  0
 45 55  1  0  0  0  0
 46 47  1  0  0  0  0
 46 48  2  0  0  0  0
 48 49  1  0  0  0  0
 48 54  1  0  0  0  0
 49 50  2  0  0  0  0
 49 53  1  0  0  0  0
 50 51  1  0  0  0  0
 51 52  2  0  0  0  0
 63 64  1  0  0  0  0
M  END
>  <MODEL>
       1

$$$$
best_conformers_75.pdb
 OpenBabel02042510453D

 70 75  0  0  1  0  0  0  0  0999 V2000
    3.4070   -3.2030   32.8460 C   0  0  0  0  0  0  0  0  0  0  0  0
    2.4000   -2.3430   32.3640 O   0  0  0  0  0  0  0  0  0  0  0  0
    2.7320   -1.3380   31.5150 C   0  0  0  0  0  0  0  0  0  0  0  0
    1.6580   -0.5440   31.0970 C   0  0  0  0  0  0  0  0  0  0  0  0
    1.8830    0.5090   30.2300 C   0  0  0  0  0  0  0  0  0  0  0  0
    3.1700    0.7740   29.7680 C   0  0  0  0  0  0  0  0  0  0  0  0
    4.2400   -0.0230   30.1710 C   0  0  0  0  0  0  0  0  0  0  0  0
    5.6370    0.2160   29.6150 C   0  0  0  0  0  0  0  0  0  0  0  0
    6.0610   -0.7990   28.6580 N   0  0  0  0  0  0  0  0  0  0  0  0
    5.5500   -0.7960   27.3990 C   0  0  0  0  0  0  0  0  0  0  0  0
    4.7130    0.0160   27.0280 O   0  0  0  0  0  0  0  0  0  0  0  0
    6.0480   -1.9120   26.4730 C   0  0  0  0  0  0  0  0  0  0  0  0
    7.0260   -1.4660   25.4970 N   0  0  0  0  0  0  0  0  0  0  0  0
    6.5870   -0.7670   24.3030 C   0  0  0  0  0  0  0  0  0  0  0  0
    7.5180   -1.0370   23.0920 C   0  0  2  0  0  0  0  0  0  0  0  0
    7.1110   -0.0610   21.9720 C   0  0  0  0  0  0  0  0  0  0  0  0
    7.2820    1.1410   21.9530 O   0  0  0  0  0  0  0  0  0  0  0  0
    6.4680   -0.7720   20.9820 N   0  0  0  0  0  0  0  0  0  0  0  0
    5.8540   -0.1460   19.8670 C   0  0  0  0  0  0  0  0  0  0  0  0
    6.2610   -0.4550   18.5920 C   0  0  0  0  0  0  0  0  0  0  0  0
    5.7690    0.1140   17.4640 N   0  0  0  0  0  0  0  0  0  0  0  0
    4.8060    0.9960   17.6090 C   0  0  0  0  0  0  0  0  0  0  0  0
    4.2400    1.3660   18.8610 C   0  0  0  0  0  0  0  0  0  0  0  0
    3.1780    2.3100   18.9540 C   0  0  0  0  0  0  0  0  0  0  0  0
    2.6300    2.6230   20.1680 C   0  0  0  0  0  0  0  0  0  0  0  0
    3.1130    1.9990   21.3410 C   0  0  0  0  0  0  0  0  0  0  0  0
    4.1410    1.0920   21.2730 C   0  0  0  0  0  0  0  0  0  0  0  0
    4.7580    0.7680   20.0320 C   0  0  0  0  0  0  0  0  0  0  0  0
    4.5010    0.6230   22.1820 H   0  0  0  0  0  0  0  0  0  0  0  0
    2.6760    2.2520   22.3030 H   0  0  0  0  0  0  0  0  0  0  0  0
    1.8260    3.3530   20.2390 H   0  0  0  0  0  0  0  0  0  0  0  0
    2.8190    2.7780   18.0400 H   0  0  0  0  0  0  0  0  0  0  0  0
    4.4200    1.4580   16.7010 H   0  0  0  0  0  0  0  0  0  0  0  0
    7.0450   -1.1930   18.4300 H   0  0  0  0  0  0  0  0  0  0  0  0
    6.3310   -2.1890   21.2660 C   0  0  0  0  0  0  0  0  0  0  0  0
    7.3180   -2.4440   22.4180 C   0  0  2  0  0  0  0  0  0  0  0  0
    6.8910   -3.6010   23.3280 C   0  0  0  0  0  0  0  0  0  0  0  0
    6.8440   -4.5420   22.7690 H   0  0  0  0  0  0  0  0  0  0  0  0
    5.9000   -3.4200   23.7590 H   0  0  0  0  0  0  0  0  0  0  0  0
    7.5900   -3.7310   24.1600 H   0  0  0  0  0  0  0  0  0  0  0  0
    8.3000   -2.6880   21.9850 H   0  0  0  0  0  0  0  0  0  0  0  0
    5.2990   -2.4450   21.5560 H   0  0  0  0  0  0  0  0  0  0  0  0
    6.5640   -2.7680   20.3740 H   0  0  0  0  0  0  0  0  0  0  0  0
    8.9540   -0.8230   23.5360 C   0  0  0  0  0  0  0  0  0  0  0  0
    9.9490   -0.5430   22.5910 C   0  0  0  0  0  0  0  0  0  0  0  0
   11.2660   -0.4100   22.9970 C   0  0  0  0  0  0  0  0  0  0  0  0
   12.5000   -0.0270   21.8360 Cl  0  0  0  0  0  0  0  0  0  0  0  0
   11.6380   -0.5760   24.3300 C   0  0  0  0  0  0  0  0  0  0  0  0
   10.6610   -0.8880   25.2570 C   0  0  0  0  0  0  0  0  0  0  0  0
    9.3300   -1.0160   24.8680 C   0  0  0  0  0  0  0  0  0  0  0  0
    8.3340   -1.4700   25.8790 C   0  0  0  0  0  0  0  0  0  0  0  0
    8.6690   -1.8720   26.9820 O   0  0  0  0  0  0  0  0  0  0  0  0
   10.9090   -1.0690   26.2960 H   0  0  0  0  0  0  0  0  0  0  0  0
   12.6810   -0.4740   24.6110 H   0  0  0  0  0  0  0  0  0  0  0  0
    9.6960   -0.4120   21.5440 H   0  0  0  0  0  0  0  0  0  0  0  0
    6.5880    0.3200   24.4740 H   0  0  0  0  0  0  0  0  0  0  0  0
    5.5590   -1.0890   24.0820 H   0  0  0  0  0  0  0  0  0  0  0  0
    6.4780   -2.7500   27.0340 H   0  0  0  0  0  0  0  0  0  0  0  0
    5.1610   -2.2580   25.9360 H   0  0  0  0  0  0  0  0  0  0  0  0
    6.8030   -1.4480   28.8850 H   0  0  0  0  0  0  0  0  0  0  0  0
    6.3710    0.2230   30.4280 H   0  0  0  0  0  0  0  0  0  0  0  0
    5.6510    1.2020   29.1310 H   0  0  0  0  0  0  0  0  0  0  0  0
    4.0210   -1.0810   31.0560 C   0  0  0  0  0  0  0  0  0  0  0  0
    4.8630   -1.6950   31.3700 H   0  0  0  0  0  0  0  0  0  0  0  0
    3.3390    1.5800   29.0600 H   0  0  0  0  0  0  0  0  0  0  0  0
    1.0420    1.1130   29.8990 H   0  0  0  0  0  0  0  0  0  0  0  0
    0.6680   -0.7910   31.4710 H   0  0  0  0  0  0  0  0  0  0  0  0
    2.8700   -3.9000   33.4940 H   0  0  0  0  0  0  0  0  0  0  0  0
    3.9030   -3.7540   32.0320 H   0  0  0  0  0  0  0  0  0  0  0  0
    4.1670   -2.6600   33.4280 H   0  0  0  0  0  0  0  0  0  0  0  0
  1  2  1  0  0  0  0
  1 68  1  0  0  0  0
  1 69  1  0  0  0  0
  1 70  1  0  0  0  0
  2  3  1  0  0  0  0
  3  4  2  0  0  0  0
  3 63  1  0  0  0  0
  4  5  1  0  0  0  0
  4 67  1  0  0  0  0
  5  6  2  0  0  0  0
  5 66  1  0  0  0  0
  6  7  1  0  0  0  0
  6 65  1  0  0  0  0
  7  8  1  0  0  0  0
  7 63  2  0  0  0  0
  8  9  1  0  0  0  0
  8 61  1  0  0  0  0
  8 62  1  0  0  0  0
  9 10  1  0  0  0  0
  9 60  1  0  0  0  0
 10 11  2  0  0  0  0
 10 12  1  0  0  0  0
 12 13  1  0  0  0  0
 12 58  1  0  0  0  0
 12 59  1  0  0  0  0
 13 14  1  0  0  0  0
 13 51  1  0  0  0  0
 14 15  1  0  0  0  0
 14 56  1  0  0  0  0
 14 57  1  0  0  0  0
 15 16  1  6  0  0  0
 15 36  1  0  0  0  0
 15 44  1  0  0  0  0
 16 17  2  0  0  0  0
 16 18  1  0  0  0  0
 18 19  1  0  0  0  0
 18 35  1  0  0  0  0
 19 20  2  0  0  0  0
 19 28  1  0  0  0  0
 20 21  1  0  0  0  0
 20 34  1  0  0  0  0
 21 22  2  0  0  0  0
 22 23  1  0  0  0  0
 22 33  1  0  0  0  0
 23 24  2  0  0  0  0
 23 28  1  0  0  0  0
 24 25  1  0  0  0  0
 24 32  1  0  0  0  0
 25 26  2  0  0  0  0
 25 31  1  0  0  0  0
 26 27  1  0  0  0  0
 26 30  1  0  0  0  0
 27 28  2  0  0  0  0
 27 29  1  0  0  0  0
 35 36  1  0  0  0  0
 35 42  1  0  0  0  0
 35 43  1  0  0  0  0
 36 37  1  0  0  0  0
 36 41  1  6  0  0  0
 37 38  1  0  0  0  0
 37 39  1  0  0  0  0
 37 40  1  0  0  0  0
 44 45  2  0  0  0  0
 44 50  1  0  0  0  0
 45 46  1  0  0  0  0
 45 55  1  0  0  0  0
 46 47  1  0  0  0  0
 46 48  2  0  0  0  0
 48 49  1  0  0  0  0
 48 54  1  0  0  0  0
 49 50  2  0  0  0  0
 49 53  1  0  0  0  0
 50 51  1  0  0  0  0
 51 52  2  0  0  0  0
 63 64  1  0  0  0  0
M  END
>  <MODEL>
       2

$$$$
best_conformers_75.pdb
 OpenBabel02042510453D

 70 75  0  0  1  0  0  0  0  0999 V2000
    1.4880    2.6690   29.0500 C   0  0  0  0  0  0  0  0  0  0  0  0
    1.3150    1.6180   29.9740 O   0  0  0  0  0  0  0  0  0  0  0  0
    2.3810    0.8510   30.3140 C   0  0  0  0  0  0  0  0  0  0  0  0
    2.1050   -0.1790   31.2190 C   0  0  0  0  0  0  0  0  0  0  0  0
    3.1200   -1.0280   31.6220 C   0  0  0  0  0  0  0  0  0  0  0  0
    4.4070   -0.8710   31.1230 C   0  0  0  0  0  0  0  0  0  0  0  0
    4.6800    0.1420   30.2110 C   0  0  0  0  0  0  0  0  0  0  0  0
    6.0790    0.2460   29.6330 C   0  0  0  0  0  0  0  0  0  0  0  0
    6.3890   -0.8330   28.6970 N   0  0  0  0  0  0  0  0  0  0  0  0
    5.8530   -0.8030   27.4490 C   0  0  0  0  0  0  0  0  0  0  0  0
    5.0440    0.0460   27.0980 O   0  0  0  0  0  0  0  0  0  0  0  0
    6.2860   -1.9300   26.5040 C   0  0  0  0  0  0  0  0  0  0  0  0
    7.2270   -1.4980   25.4840 N   0  0  0  0  0  0  0  0  0  0  0  0
    6.7370   -0.7930   24.3100 C   0  0  0  0  0  0  0  0  0  0  0  0
    7.6020   -1.0600   23.0530 C   0  0  2  0  0  0  0  0  0  0  0  0
    7.1490   -0.0770   21.9550 C   0  0  0  0  0  0  0  0  0  0  0  0
    7.3210    1.1260   21.9340 O   0  0  0  0  0  0  0  0  0  0  0  0
    6.4700   -0.7780   20.9810 N   0  0  0  0  0  0  0  0  0  0  0  0
    5.8540   -0.1480   19.8660 C   0  0  0  0  0  0  0  0  0  0  0  0
    6.2590   -0.4550   18.5900 C   0  0  0  0  0  0  0  0  0  0  0  0
    5.7660    0.1150   17.4620 N   0  0  0  0  0  0  0  0  0  0  0  0
    4.8050    0.9970   17.6080 C   0  0  0  0  0  0  0  0  0  0  0  0
    4.2420    1.3680   18.8600 C   0  0  0  0  0  0  0  0  0  0  0  0
    3.1830    2.3150   18.9550 C   0  0  0  0  0  0  0  0  0  0  0  0
    2.6390    2.6330   20.1710 C   0  0  0  0  0  0  0  0  0  0  0  0
    3.1260    2.0100   21.3430 C   0  0  0  0  0  0  0  0  0  0  0  0
    4.1510    1.1000   21.2740 C   0  0  0  0  0  0  0  0  0  0  0  0
    4.7610    0.7690   20.0310 C   0  0  0  0  0  0  0  0  0  0  0  0
    4.5150    0.6330   22.1820 H   0  0  0  0  0  0  0  0  0  0  0  0
    2.6940    2.2680   22.3070 H   0  0  0  0  0  0  0  0  0  0  0  0
    1.8380    3.3650   20.2430 H   0  0  0  0  0  0  0  0  0  0  0  0
    2.8210    2.7820   18.0420 H   0  0  0  0  0  0  0  0  0  0  0  0
    4.4180    1.4600   16.7000 H   0  0  0  0  0  0  0  0  0  0  0  0
    7.0440   -1.1920   18.4260 H   0  0  0  0  0  0  0  0  0  0  0  0
    6.3370   -2.1960   21.2610 C   0  0  0  0  0  0  0  0  0  0  0  0
    7.3630   -2.4600   22.3770 C   0  0  2  0  0  0  0  0  0  0  0  0
    6.9580   -3.6160   23.2980 C   0  0  0  0  0  0  0  0  0  0  0  0
    5.9850   -3.4270   23.7690 H   0  0  0  0  0  0  0  0  0  0  0  0
    6.8780   -4.5550   22.7380 H   0  0  0  0  0  0  0  0  0  0  0  0
    7.6870   -3.7570   24.1020 H   0  0  0  0  0  0  0  0  0  0  0  0
    8.3250   -2.7140   21.9070 H   0  0  0  0  0  0  0  0  0  0  0  0
    6.5350   -2.7700   20.3550 H   0  0  0  0  0  0  0  0  0  0  0  0
    5.3150   -2.4510   21.5830 H   0  0  0  0  0  0  0  0  0  0  0  0
    9.0600   -0.8610   23.4330 C   0  0  0  0  0  0  0  0  0  0  0  0
   10.0140   -0.5800   22.4430 C   0  0  0  0  0  0  0  0  0  0  0  0
   11.3470   -0.4600   22.7960 C   0  0  0  0  0  0  0  0  0  0  0  0
   12.5750   -0.0890   21.6260 Cl  0  0  0  0  0  0  0  0  0  0  0  0
   11.7720   -0.6350   24.1100 C   0  0  0  0  0  0  0  0  0  0  0  0
   10.8420   -0.9430   25.0800 C   0  0  0  0  0  0  0  0  0  0  0  0
    9.4940   -1.0600   24.7470 C   0  0  0  0  0  0  0  0  0  0  0  0
    8.5500   -1.4910   25.8170 C   0  0  0  0  0  0  0  0  0  0  0  0
    8.9390   -1.8530   26.9140 O   0  0  0  0  0  0  0  0  0  0  0  0
   11.1420   -1.1260   26.1050 H   0  0  0  0  0  0  0  0  0  0  0  0
   12.8280   -0.5390   24.3290 H   0  0  0  0  0  0  0  0  0  0  0  0
    9.7090   -0.4430   21.4110 H   0  0  0  0  0  0  0  0  0  0  0  0
    5.7000   -1.1100   24.1380 H   0  0  0  0  0  0  0  0  0  0  0  0
    6.7460    0.2930   24.4840 H   0  0  0  0  0  0  0  0  0  0  0  0
    5.3700   -2.2540   26.0020 H   0  0  0  0  0  0  0  0  0  0  0  0
    6.7190   -2.7830   27.0420 H   0  0  0  0  0  0  0  0  0  0  0  0
    7.1320   -1.4950   28.8920 H   0  0  0  0  0  0  0  0  0  0  0  0
    6.7980    0.1950   30.4570 H   0  0  0  0  0  0  0  0  0  0  0  0
    6.1900    1.2180   29.1350 H   0  0  0  0  0  0  0  0  0  0  0  0
    3.6680    1.0190   29.8110 C   0  0  0  0  0  0  0  0  0  0  0  0
    3.8970    1.7860   29.0760 H   0  0  0  0  0  0  0  0  0  0  0  0
    5.2020   -1.5440   31.4330 H   0  0  0  0  0  0  0  0  0  0  0  0
    2.9030   -1.8300   32.3220 H   0  0  0  0  0  0  0  0  0  0  0  0
    1.0870   -0.2870   31.5810 H   0  0  0  0  0  0  0  0  0  0  0  0
    0.4910    3.1090   28.9600 H   0  0  0  0  0  0  0  0  0  0  0  0
    2.2010    3.4230   29.4170 H   0  0  0  0  0  0  0  0  0  0  0  0
    1.8250    2.3020   28.0680 H   0  0  0  0  0  0  0  0  0  0  0  0
  1  2  1  0  0  0  0
  1 68  1  0  0  0  0
  1 69  1  0  0  0  0
  1 70  1  0  0  0  0
  2  3  1  0  0  0  0
  3  4  2  0  0  0  0
  3 63  1  0  0  0  0
  4  5  1  0  0  0  0
  4 67  1  0  0  0  0
  5  6  2  0  0  0  0
  5 66  1  0  0  0  0
  6  7  1  0  0  0  0
  6 65  1  0  0  0  0
  7  8  1  0  0  0  0
  7 63  2  0  0  0  0
  8  9  1  0  0  0  0
  8 61  1  0  0  0  0
  8 62  1  0  0  0  0
  9 10  1  0  0  0  0
  9 60  1  0  0  0  0
 10 11  2  0  0  0  0
 10 12  1  0  0  0  0
 12 13  1  0  0  0  0
 12 58  1  0  0  0  0
 12 59  1  0  0  0  0
 13 14  1  0  0  0  0
 13 51  1  0  0  0  0
 14 15  1  0  0  0  0
 14 56  1  0  0  0  0
 14 57  1  0  0  0  0
 15 16  1  6  0  0  0
 15 36  1  0  0  0  0
 15 44  1  0  0  0  0
 16 17  2  0  0  0  0
 16 18  1  0  0  0  0
 18 19  1  0  0  0  0
 18 35  1  0  0  0  0
 19 20  2  0  0  0  0
 19 28  1  0  0  0  0
 20 21  1  0  0  0  0
 20 34  1  0  0  0  0
 21 22  2  0  0  0  0
 22 23  1  0  0  0  0
 22 33  1  0  0  0  0
 23 24  2  0  0  0  0
 23 28  1  0  0  0  0
 24 25  1  0  0  0  0
 24 32  1  0  0  0  0
 25 26  2  0  0  0  0
 25 31  1  0  0  0  0
 26 27  1  0  0  0  0
 26 30  1  0  0  0  0
 27 28  2  0  0  0  0
 27 29  1  0  0  0  0
 35 36  1  0  0  0  0
 35 42  1  0  0  0  0
 35 43  1  0  0  0  0
 36 37  1  0  0  0  0
 36 41  1  6  0  0  0
 37 38  1  0  0  0  0
 37 39  1  0  0  0  0
 37 40  1  0  0  0  0
 44 45  2  0  0  0  0
 44 50  1  0  0  0  0
 45 46  1  0  0  0  0
 45 55  1  0  0  0  0
 46 47  1  0  0  0  0
 46 48  2  0  0  0  0
 48 49  1  0  0  0  0
 48 54  1  0  0  0  0
 49 50  2  0  0  0  0
 49 53  1  0  0  0  0
 50 51  1  0  0  0  0
 51 52  2  0  0  0  0
 63 64  1  0  0  0  0
M  END
>  <MODEL>
       3

$$$$
