best_conformers_91.pdb
 OpenBabel02042510453D

 56 61  0  0  1  0  0  0  0  0999 V2000
    8.9960   -2.7040   22.1620 C   0  0  0  0  0  0  0  0  0  0  0  0
    7.9820   -1.6210   22.5700 C   0  0  1  0  0  0  0  0  0  0  0  0
    7.7540   -0.6240   21.4050 C   0  0  0  0  0  0  0  0  0  0  0  0
    6.3960   -0.8730   20.9570 N   0  0  0  0  0  0  0  0  0  0  0  0
    5.8010   -0.2080   19.8520 C   0  0  0  0  0  0  0  0  0  0  0  0
    6.2570   -0.4590   18.5850 C   0  0  0  0  0  0  0  0  0  0  0  0
    5.7820    0.1320   17.4600 N   0  0  0  0  0  0  0  0  0  0  0  0
    4.8080    0.9990   17.6090 C   0  0  0  0  0  0  0  0  0  0  0  0
    4.2380    1.3620   18.8610 C   0  0  0  0  0  0  0  0  0  0  0  0
    3.1910    2.3210   18.9580 C   0  0  0  0  0  0  0  0  0  0  0  0
    2.6770    2.6700   20.1750 C   0  0  0  0  0  0  0  0  0  0  0  0
    3.1990    2.0850   21.3550 C   0  0  0  0  0  0  0  0  0  0  0  0
    4.2120    1.1620   21.2900 C   0  0  0  0  0  0  0  0  0  0  0  0
    4.7500    0.7540   20.0350 C   0  0  0  0  0  0  0  0  0  0  0  0
    4.6000    0.7220   22.2090 H   0  0  0  0  0  0  0  0  0  0  0  0
    2.7850    2.3700   22.3180 H   0  0  0  0  0  0  0  0  0  0  0  0
    1.8760    3.4010   20.2470 H   0  0  0  0  0  0  0  0  0  0  0  0
    2.8170    2.7740   18.0400 H   0  0  0  0  0  0  0  0  0  0  0  0
    4.4160    1.4590   16.7000 H   0  0  0  0  0  0  0  0  0  0  0  0
    7.0500   -1.1890   18.4280 H   0  0  0  0  0  0  0  0  0  0  0  0
    5.6810   -1.7360   21.7540 C   0  0  0  0  0  0  0  0  0  0  0  0
    4.5520   -2.1130   21.5230 O   0  0  0  0  0  0  0  0  0  0  0  0
    6.5520   -2.1230   22.9710 C   0  0  1  0  0  0  0  0  0  0  0  0
    6.4700   -3.6430   23.1920 C   0  0  0  0  0  0  0  0  0  0  0  0
    5.1490   -4.0420   23.6220 N   0  0  0  0  0  0  0  0  0  0  0  0
    4.5900   -5.2740   23.1010 C   0  0  0  0  0  0  0  0  0  0  0  0
    5.1340   -6.5360   23.7500 C   0  0  0  0  0  0  0  0  0  0  0  0
    6.3110   -7.2680   23.4470 C   0  0  0  0  0  0  0  0  0  0  0  0
    6.5110   -8.2680   24.2960 N   0  0  0  0  0  0  0  0  0  0  0  0
    5.4750   -8.2040   25.1390 N   0  0  0  0  0  0  0  0  0  0  0  0
    4.6220   -7.1910   24.8510 C   0  0  0  0  0  0  0  0  0  0  0  0
    3.7290   -7.0150   25.4390 H   0  0  0  0  0  0  0  0  0  0  0  0
    5.4310   -8.8500   25.9120 H   0  0  0  0  0  0  0  0  0  0  0  0
    7.0400   -7.1260   22.6540 H   0  0  0  0  0  0  0  0  0  0  0  0
    4.7820   -5.2700   22.0200 H   0  0  0  0  0  0  0  0  0  0  0  0
    3.5070   -5.2140   23.2490 H   0  0  0  0  0  0  0  0  0  0  0  0
    4.5770   -3.4850   24.7280 C   0  0  0  0  0  0  0  0  0  0  0  0
    3.7070   -4.0590   25.3730 O   0  0  0  0  0  0  0  0  0  0  0  0
    5.0720   -2.1120   25.0570 C   0  0  0  0  0  0  0  0  0  0  0  0
    4.5410   -1.4780   26.1800 C   0  0  0  0  0  0  0  0  0  0  0  0
    4.8750   -0.1700   26.4710 C   0  0  0  0  0  0  0  0  0  0  0  0
    5.7420    0.4910   25.6100 C   0  0  0  0  0  0  0  0  0  0  0  0
    6.0500    1.7720   25.8740 F   0  0  0  0  0  0  0  0  0  0  0  0
    6.2950   -0.1140   24.5000 C   0  0  0  0  0  0  0  0  0  0  0  0
    5.9890   -1.4510   24.2230 C   0  0  0  0  0  0  0  0  0  0  0  0
    6.9450    0.4820   23.8670 H   0  0  0  0  0  0  0  0  0  0  0  0
    4.4730    0.3600   27.3260 H   0  0  0  0  0  0  0  0  0  0  0  0
    3.8420   -2.0390   26.7920 H   0  0  0  0  0  0  0  0  0  0  0  0
    6.6740   -4.1560   22.2530 H   0  0  0  0  0  0  0  0  0  0  0  0
    7.2220   -3.9400   23.9420 H   0  0  0  0  0  0  0  0  0  0  0  0
    7.8770    0.4220   21.7210 H   0  0  0  0  0  0  0  0  0  0  0  0
    8.4600   -0.7940   20.5860 H   0  0  0  0  0  0  0  0  0  0  0  0
    8.4170   -1.1040   23.4340 H   0  0  0  0  0  0  0  0  0  0  0  0
    9.2050   -3.4010   22.9780 H   0  0  0  0  0  0  0  0  0  0  0  0
    9.9480   -2.2400   21.8800 H   0  0  0  0  0  0  0  0  0  0  0  0
    8.6460   -3.2870   21.3050 H   0  0  0  0  0  0  0  0  0  0  0  0
  1  2  1  0  0  0  0
  1 54  1  0  0  0  0
  1 55  1  0  0  0  0
  1 56  1  0  0  0  0
  2  3  1  0  0  0  0
  2 23  1  0  0  0  0
  2 53  1  1  0  0  0
  3  4  1  0  0  0  0
  3 51  1  0  0  0  0
  3 52  1  0  0  0  0
  4  5  1  0  0  0  0
  4 21  1  0  0  0  0
  5  6  2  0  0  0  0
  5 14  1  0  0  0  0
  6  7  1  0  0  0  0
  6 20  1  0  0  0  0
  7  8  2  0  0  0  0
  8  9  1  0  0  0  0
  8 19  1  0  0  0  0
  9 10  2  0  0  0  0
  9 14  1  0  0  0  0
 10 11  1  0  0  0  0
 10 18  1  0  0  0  0
 11 12  2  0  0  0  0
 11 17  1  0  0  0  0
 12 13  1  0  0  0  0
 12 16  1  0  0  0  0
 13 14  2  0  0  0  0
 13 15  1  0  0  0  0
 21 22  2  0  0  0  0
 23 21  1  6  0  0  0
 23 24  1  0  0  0  0
 23 45  1  0  0  0  0
 24 25  1  0  0  0  0
 24 49  1  0  0  0  0
 24 50  1  0  0  0  0
 25 26  1  0  0  0  0
 25 37  1  0  0  0  0
 26 27  1  0  0  0  0
 26 35  1  0  0  0  0
 26 36  1  0  0  0  0
 27 28  1  0  0  0  0
 27 31  2  0  0  0  0
 28 29  2  0  0  0  0
 28 34  1  0  0  0  0
 29 30  1  0  0  0  0
 30 31  1  0  0  0  0
 30 33  1  0  0  0  0
 31 32  1  0  0  0  0
 37 38  2  0  0  0  0
 37 39  1  0  0  0  0
 39 40  2  0  0  0  0
 39 45  1  0  0  0  0
 40 41  1  0  0  0  0
 40 48  1  0  0  0  0
 41 42  2  0  0  0  0
 41 47  1  0  0  0  0
 42 43  1  0  0  0  0
 42 44  1  0  0  0  0
 44 45  2  0  0  0  0
 44 46  1  0  0  0  0
M  END
>  <MODEL>
       1

$$$$
best_conformers_91.pdb
 OpenBabel02042510453D

 56 61  0  0  1  0  0  0  0  0999 V2000
    8.9980   -2.7000   22.1640 C   0  0  0  0  0  0  0  0  0  0  0  0
    7.9830   -1.6190   22.5710 C   0  0  1  0  0  0  0  0  0  0  0  0
    7.7530   -0.6230   21.4060 C   0  0  0  0  0  0  0  0  0  0  0  0
    6.3960   -0.8730   20.9580 N   0  0  0  0  0  0  0  0  0  0  0  0
    5.8010   -0.2080   19.8520 C   0  0  0  0  0  0  0  0  0  0  0  0
    6.2570   -0.4590   18.5850 C   0  0  0  0  0  0  0  0  0  0  0  0
    5.7820    0.1320   17.4600 N   0  0  0  0  0  0  0  0  0  0  0  0
    4.8080    0.9990   17.6080 C   0  0  0  0  0  0  0  0  0  0  0  0
    4.2380    1.3630   18.8610 C   0  0  0  0  0  0  0  0  0  0  0  0
    3.1910    2.3210   18.9580 C   0  0  0  0  0  0  0  0  0  0  0  0
    2.6780    2.6700   20.1750 C   0  0  0  0  0  0  0  0  0  0  0  0
    3.1990    2.0850   21.3540 C   0  0  0  0  0  0  0  0  0  0  0  0
    4.2120    1.1620   21.2900 C   0  0  0  0  0  0  0  0  0  0  0  0
    4.7500    0.7540   20.0350 C   0  0  0  0  0  0  0  0  0  0  0  0
    4.6010    0.7220   22.2080 H   0  0  0  0  0  0  0  0  0  0  0  0
    2.7850    2.3700   22.3170 H   0  0  0  0  0  0  0  0  0  0  0  0
    1.8760    3.4010   20.2470 H   0  0  0  0  0  0  0  0  0  0  0  0
    2.8170    2.7740   18.0400 H   0  0  0  0  0  0  0  0  0  0  0  0
    4.4160    1.4590   16.6990 H   0  0  0  0  0  0  0  0  0  0  0  0
    7.0500   -1.1890   18.4280 H   0  0  0  0  0  0  0  0  0  0  0  0
    5.6820   -1.7380   21.7550 C   0  0  0  0  0  0  0  0  0  0  0  0
    4.5530   -2.1140   21.5250 O   0  0  0  0  0  0  0  0  0  0  0  0
    6.5540   -2.1240   22.9710 C   0  0  1  0  0  0  0  0  0  0  0  0
    6.4730   -3.6450   23.1960 C   0  0  0  0  0  0  0  0  0  0  0  0
    5.1500   -4.0400   23.6240 N   0  0  0  0  0  0  0  0  0  0  0  0
    4.5970   -5.2750   23.1040 C   0  0  0  0  0  0  0  0  0  0  0  0
    5.1630   -6.5360   23.7360 C   0  0  0  0  0  0  0  0  0  0  0  0
    4.6770   -7.2650   24.8520 C   0  0  0  0  0  0  0  0  0  0  0  0
    5.4760   -8.2710   25.1860 N   0  0  0  0  0  0  0  0  0  0  0  0
    6.4730   -8.2110   24.2960 N   0  0  0  0  0  0  0  0  0  0  0  0
    6.3280   -7.1980   23.4060 C   0  0  0  0  0  0  0  0  0  0  0  0
    7.0490   -7.0510   22.6130 H   0  0  0  0  0  0  0  0  0  0  0  0
    7.2460   -8.8530   24.3780 H   0  0  0  0  0  0  0  0  0  0  0  0
    3.7810   -7.0890   25.4390 H   0  0  0  0  0  0  0  0  0  0  0  0
    3.5150   -5.2280   23.2600 H   0  0  0  0  0  0  0  0  0  0  0  0
    4.7810   -5.2630   22.0220 H   0  0  0  0  0  0  0  0  0  0  0  0
    4.5740   -3.4760   24.7260 C   0  0  0  0  0  0  0  0  0  0  0  0
    3.6960   -4.0390   25.3670 O   0  0  0  0  0  0  0  0  0  0  0  0
    5.0740   -2.1060   25.0560 C   0  0  0  0  0  0  0  0  0  0  0  0
    4.5410   -1.4730   26.1790 C   0  0  0  0  0  0  0  0  0  0  0  0
    4.8730   -0.1660   26.4700 C   0  0  0  0  0  0  0  0  0  0  0  0
    5.7390    0.4950   25.6080 C   0  0  0  0  0  0  0  0  0  0  0  0
    6.0460    1.7760   25.8720 F   0  0  0  0  0  0  0  0  0  0  0  0
    6.2940   -0.1100   24.4990 C   0  0  0  0  0  0  0  0  0  0  0  0
    5.9910   -1.4480   24.2220 C   0  0  0  0  0  0  0  0  0  0  0  0
    6.9430    0.4870   23.8660 H   0  0  0  0  0  0  0  0  0  0  0  0
    4.4690    0.3650   27.3240 H   0  0  0  0  0  0  0  0  0  0  0  0
    3.8420   -2.0350   26.7900 H   0  0  0  0  0  0  0  0  0  0  0  0
    6.6790   -4.1660   22.2610 H   0  0  0  0  0  0  0  0  0  0  0  0
    7.2240   -3.9390   23.9480 H   0  0  0  0  0  0  0  0  0  0  0  0
    8.4600   -0.7920   20.5870 H   0  0  0  0  0  0  0  0  0  0  0  0
    7.8760    0.4240   21.7210 H   0  0  0  0  0  0  0  0  0  0  0  0
    8.4160   -1.1010   23.4350 H   0  0  0  0  0  0  0  0  0  0  0  0
    9.9490   -2.2350   21.8810 H   0  0  0  0  0  0  0  0  0  0  0  0
    9.2090   -3.3950   22.9810 H   0  0  0  0  0  0  0  0  0  0  0  0
    8.6490   -3.2840   21.3070 H   0  0  0  0  0  0  0  0  0  0  0  0
  1  2  1  0  0  0  0
  1 54  1  0  0  0  0
  1 55  1  0  0  0  0
  1 56  1  0  0  0  0
  2  3  1  0  0  0  0
  2 23  1  0  0  0  0
  2 53  1  1  0  0  0
  3  4  1  0  0  0  0
  3 51  1  0  0  0  0
  3 52  1  0  0  0  0
  4  5  1  0  0  0  0
  4 21  1  0  0  0  0
  5  6  2  0  0  0  0
  5 14  1  0  0  0  0
  6  7  1  0  0  0  0
  6 20  1  0  0  0  0
  7  8  2  0  0  0  0
  8  9  1  0  0  0  0
  8 19  1  0  0  0  0
  9 10  2  0  0  0  0
  9 14  1  0  0  0  0
 10 11  1  0  0  0  0
 10 18  1  0  0  0  0
 11 12  2  0  0  0  0
 11 17  1  0  0  0  0
 12 13  1  0  0  0  0
 12 16  1  0  0  0  0
 13 14  2  0  0  0  0
 13 15  1  0  0  0  0
 21 22  2  0  0  0  0
 23 21  1  6  0  0  0
 23 24  1  0  0  0  0
 23 45  1  0  0  0  0
 24 25  1  0  0  0  0
 24 49  1  0  0  0  0
 24 50  1  0  0  0  0
 25 26  1  0  0  0  0
 25 37  1  0  0  0  0
 26 27  1  0  0  0  0
 26 35  1  0  0  0  0
 26 36  1  0  0  0  0
 27 28  1  0  0  0  0
 27 31  2  0  0  0  0
 28 29  2  0  0  0  0
 28 34  1  0  0  0  0
 29 30  1  0  0  0  0
 30 31  1  0  0  0  0
 30 33  1  0  0  0  0
 31 32  1  0  0  0  0
 37 38  2  0  0  0  0
 37 39  1  0  0  0  0
 39 40  2  0  0  0  0
 39 45  1  0  0  0  0
 40 41  1  0  0  0  0
 40 48  1  0  0  0  0
 41 42  2  0  0  0  0
 41 47  1  0  0  0  0
 42 43  1  0  0  0  0
 42 44  1  0  0  0  0
 44 45  2  0  0  0  0
 44 46  1  0  0  0  0
M  END
>  <MODEL>
       2

$$$$
best_conformers_91.pdb
 OpenBabel02042510453D

 56 61  0  0  1  0  0  0  0  0999 V2000
    6.7980   -3.6130   23.3110 C   0  0  0  0  0  0  0  0  0  0  0  0
    7.2500   -2.4730   22.4040 C   0  0  1  0  0  0  0  0  0  0  0  0
    6.2680   -2.1990   21.2560 C   0  0  0  0  0  0  0  0  0  0  0  0
    6.4470   -0.7950   20.9700 N   0  0  0  0  0  0  0  0  0  0  0  0
    5.8380   -0.1560   19.8670 C   0  0  0  0  0  0  0  0  0  0  0  0
    6.2650   -0.4610   18.5980 C   0  0  0  0  0  0  0  0  0  0  0  0
    5.7870    0.1110   17.4680 N   0  0  0  0  0  0  0  0  0  0  0  0
    4.8190    0.9880   17.6100 C   0  0  0  0  0  0  0  0  0  0  0  0
    4.2540    1.3590   18.8640 C   0  0  0  0  0  0  0  0  0  0  0  0
    3.1930    2.3000   18.9510 C   0  0  0  0  0  0  0  0  0  0  0  0
    2.6380    2.6130   20.1610 C   0  0  0  0  0  0  0  0  0  0  0  0
    3.1120    1.9990   21.3400 C   0  0  0  0  0  0  0  0  0  0  0  0
    4.1400    1.0930   21.2870 C   0  0  0  0  0  0  0  0  0  0  0  0
    4.7570    0.7660   20.0410 C   0  0  0  0  0  0  0  0  0  0  0  0
    4.4930    0.6320   22.2050 H   0  0  0  0  0  0  0  0  0  0  0  0
    2.6630    2.2500   22.2980 H   0  0  0  0  0  0  0  0  0  0  0  0
    1.8320    3.3430   20.2250 H   0  0  0  0  0  0  0  0  0  0  0  0
    2.8380    2.7650   18.0370 H   0  0  0  0  0  0  0  0  0  0  0  0
    4.4260    1.4480   16.7030 H   0  0  0  0  0  0  0  0  0  0  0  0
    7.0590   -1.1970   18.4600 H   0  0  0  0  0  0  0  0  0  0  0  0
    7.0990   -0.1030   21.9610 C   0  0  0  0  0  0  0  0  0  0  0  0
    7.2850    1.0970   21.9370 O   0  0  0  0  0  0  0  0  0  0  0  0
    7.4840   -1.0780   23.0820 C   0  0  1  0  0  0  0  0  0  0  0  0
    6.5540   -0.7470   24.2640 C   0  0  0  0  0  0  0  0  0  0  0  0
    6.9690   -1.3240   25.5270 N   0  0  0  0  0  0  0  0  0  0  0  0
    5.9430   -1.6600   26.5070 C   0  0  0  0  0  0  0  0  0  0  0  0
    5.5110   -3.1140   26.5370 C   0  0  0  0  0  0  0  0  0  0  0  0
    6.2060   -4.2110   27.0970 C   0  0  0  0  0  0  0  0  0  0  0  0
    5.5220   -5.3440   27.0020 N   0  0  0  0  0  0  0  0  0  0  0  0
    4.4090   -4.9960   26.3610 N   0  0  0  0  0  0  0  0  0  0  0  0
    4.3460   -3.6770   26.0640 C   0  0  0  0  0  0  0  0  0  0  0  0
    3.4820   -3.2720   25.5480 H   0  0  0  0  0  0  0  0  0  0  0  0
    3.7790   -5.7220   26.0620 H   0  0  0  0  0  0  0  0  0  0  0  0
    7.1740   -4.1960   27.5760 H   0  0  0  0  0  0  0  0  0  0  0  0
    6.3680   -1.3860   27.4740 H   0  0  0  0  0  0  0  0  0  0  0  0
    5.0960   -0.9890   26.3080 H   0  0  0  0  0  0  0  0  0  0  0  0
    8.2740   -1.5560   25.8610 C   0  0  0  0  0  0  0  0  0  0  0  0
    8.5920   -2.1040   26.9090 O   0  0  0  0  0  0  0  0  0  0  0  0
    9.2870   -1.1300   24.8580 C   0  0  0  0  0  0  0  0  0  0  0  0
   10.6200   -1.0590   25.2600 C   0  0  0  0  0  0  0  0  0  0  0  0
   11.6050   -0.7540   24.3390 C   0  0  0  0  0  0  0  0  0  0  0  0
   11.2310   -0.5500   23.0130 C   0  0  0  0  0  0  0  0  0  0  0  0
   12.1870   -0.2800   22.1070 F   0  0  0  0  0  0  0  0  0  0  0  0
    9.9160   -0.6170   22.5940 C   0  0  0  0  0  0  0  0  0  0  0  0
    8.9160   -0.8930   23.5320 C   0  0  0  0  0  0  0  0  0  0  0  0
    9.6750   -0.4690   21.5480 H   0  0  0  0  0  0  0  0  0  0  0  0
   12.6530   -0.6990   24.6090 H   0  0  0  0  0  0  0  0  0  0  0  0
   10.8400   -1.2650   26.3070 H   0  0  0  0  0  0  0  0  0  0  0  0
    5.5470   -1.1160   24.0500 H   0  0  0  0  0  0  0  0  0  0  0  0
    6.4960    0.3480   24.3250 H   0  0  0  0  0  0  0  0  0  0  0  0
    6.4680   -2.7850   20.3600 H   0  0  0  0  0  0  0  0  0  0  0  0
    5.2310   -2.4050   21.5520 H   0  0  0  0  0  0  0  0  0  0  0  0
    8.2180   -2.7410   21.9590 H   0  0  0  0  0  0  0  0  0  0  0  0
    7.4700   -3.7450   24.1650 H   0  0  0  0  0  0  0  0  0  0  0  0
    6.7670   -4.5570   22.7590 H   0  0  0  0  0  0  0  0  0  0  0  0
    5.7900   -3.4350   23.7000 H   0  0  0  0  0  0  0  0  0  0  0  0
  1  2  1  0  0  0  0
  1 54  1  0  0  0  0
  1 55  1  0  0  0  0
  1 56  1  0  0  0  0
  2  3  1  0  0  0  0
  2 23  1  0  0  0  0
  2 53  1  6  0  0  0
  3  4  1  0  0  0  0
  3 51  1  0  0  0  0
  3 52  1  0  0  0  0
  4  5  1  0  0  0  0
  4 21  1  0  0  0  0
  5  6  2  0  0  0  0
  5 14  1  0  0  0  0
  6  7  1  0  0  0  0
  6 20  1  0  0  0  0
  7  8  2  0  0  0  0
  8  9  1  0  0  0  0
  8 19  1  0  0  0  0
  9 10  2  0  0  0  0
  9 14  1  0  0  0  0
 10 11  1  0  0  0  0
 10 18  1  0  0  0  0
 11 12  2  0  0  0  0
 11 17  1  0  0  0  0
 12 13  1  0  0  0  0
 12 16  1  0  0  0  0
 13 14  2  0  0  0  0
 13 15  1  0  0  0  0
 21 22  2  0  0  0  0
 23 21  1  6  0  0  0
 23 24  1  0  0  0  0
 23 45  1  0  0  0  0
 24 25  1  0  0  0  0
 24 49  1  0  0  0  0
 24 50  1  0  0  0  0
 25 26  1  0  0  0  0
 25 37  1  0  0  0  0
 26 27  1  0  0  0  0
 26 35  1  0  0  0  0
 26 36  1  0  0  0  0
 27 28  1  0  0  0  0
 27 31  2  0  0  0  0
 28 29  2  0  0  0  0
 28 34  1  0  0  0  0
 29 30  1  0  0  0  0
 30 31  1  0  0  0  0
 30 33  1  0  0  0  0
 31 32  1  0  0  0  0
 37 38  2  0  0  0  0
 37 39  1  0  0  0  0
 39 40  2  0  0  0  0
 39 45  1  0  0  0  0
 40 41  1  0  0  0  0
 40 48  1  0  0  0  0
 41 42  2  0  0  0  0
 41 47  1  0  0  0  0
 42 43  1  0  0  0  0
 42 44  1  0  0  0  0
 44 45  2  0  0  0  0
 44 46  1  0  0  0  0
M  END
>  <MODEL>
       3

$$$$
