best_conformers_70.pdb
 OpenBabel02042510453D

 57 62  0  0  1  0  0  0  0  0999 V2000
    6.8220   -3.6360   23.3100 C   0  0  0  0  0  0  0  0  0  0  0  0
    7.2730   -2.4770   22.4100 C   0  0  1  0  0  0  0  0  0  0  0  0
    6.2970   -2.2060   21.2530 C   0  0  0  0  0  0  0  0  0  0  0  0
    6.4560   -0.7880   20.9770 N   0  0  0  0  0  0  0  0  0  0  0  0
    5.8490   -0.1510   19.8640 C   0  0  0  0  0  0  0  0  0  0  0  0
    6.2590   -0.4570   18.5920 C   0  0  0  0  0  0  0  0  0  0  0  0
    5.7690    0.1150   17.4640 N   0  0  0  0  0  0  0  0  0  0  0  0
    4.8070    0.9960   17.6100 C   0  0  0  0  0  0  0  0  0  0  0  0
    4.2400    1.3660   18.8600 C   0  0  0  0  0  0  0  0  0  0  0  0
    3.1780    2.3090   18.9550 C   0  0  0  0  0  0  0  0  0  0  0  0
    2.6290    2.6230   20.1670 C   0  0  0  0  0  0  0  0  0  0  0  0
    3.1120    1.9970   21.3420 C   0  0  0  0  0  0  0  0  0  0  0  0
    4.1390    1.0910   21.2730 C   0  0  0  0  0  0  0  0  0  0  0  0
    4.7560    0.7650   20.0320 C   0  0  0  0  0  0  0  0  0  0  0  0
    4.5000    0.6230   22.1840 H   0  0  0  0  0  0  0  0  0  0  0  0
    2.6740    2.2510   22.3040 H   0  0  0  0  0  0  0  0  0  0  0  0
    1.8240    3.3530   20.2380 H   0  0  0  0  0  0  0  0  0  0  0  0
    2.8200    2.7780   18.0390 H   0  0  0  0  0  0  0  0  0  0  0  0
    4.4220    1.4570   16.7020 H   0  0  0  0  0  0  0  0  0  0  0  0
    7.0430   -1.1960   18.4300 H   0  0  0  0  0  0  0  0  0  0  0  0
    7.0990   -0.0900   21.9750 C   0  0  0  0  0  0  0  0  0  0  0  0
    7.2820    1.1110   21.9680 O   0  0  0  0  0  0  0  0  0  0  0  0
    7.4830   -1.0770   23.0910 C   0  0  1  0  0  0  0  0  0  0  0  0
    6.5430   -0.8030   24.2870 C   0  0  0  0  0  0  0  0  0  0  0  0
    6.9530   -1.5300   25.4770 N   0  0  0  0  0  0  0  0  0  0  0  0
    5.9410   -1.9400   26.4440 C   0  0  0  0  0  0  0  0  0  0  0  0
    5.5070   -0.8580   27.3840 C   0  0  0  0  0  0  0  0  0  0  0  0
    4.5180    0.0270   27.1070 N   0  0  0  0  0  0  0  0  0  0  0  0
    4.4550    0.8400   28.1240 N   0  0  0  0  0  0  0  0  0  0  0  0
    5.3680    0.4330   28.9780 N   0  0  0  0  0  0  0  0  0  0  0  0
    5.6790    1.1460   30.2010 C   0  0  0  0  0  0  0  0  0  0  0  0
    4.7600    1.6330   30.5380 H   0  0  0  0  0  0  0  0  0  0  0  0
    6.4670    1.8880   30.0090 H   0  0  0  0  0  0  0  0  0  0  0  0
    6.0200    0.3970   30.9200 H   0  0  0  0  0  0  0  0  0  0  0  0
    6.0440   -0.6270   28.5720 N   0  0  0  0  0  0  0  0  0  0  0  0
    6.3620   -2.7640   27.0260 H   0  0  0  0  0  0  0  0  0  0  0  0
    5.0560   -2.2810   25.8960 H   0  0  0  0  0  0  0  0  0  0  0  0
    8.2590   -1.5580   25.8830 C   0  0  0  0  0  0  0  0  0  0  0  0
    8.5820   -1.9870   26.9750 O   0  0  0  0  0  0  0  0  0  0  0  0
    9.2700   -1.0870   24.8900 C   0  0  0  0  0  0  0  0  0  0  0  0
   10.5990   -0.9800   25.3010 C   0  0  0  0  0  0  0  0  0  0  0  0
   11.5940   -0.6800   24.3890 C   0  0  0  0  0  0  0  0  0  0  0  0
   11.2260   -0.5040   23.0600 C   0  0  0  0  0  0  0  0  0  0  0  0
   12.1840   -0.2180   22.1650 F   0  0  0  0  0  0  0  0  0  0  0  0
    9.9210   -0.6110   22.6250 C   0  0  0  0  0  0  0  0  0  0  0  0
    8.9120   -0.8810   23.5550 C   0  0  0  0  0  0  0  0  0  0  0  0
    9.7000   -0.4660   21.5730 H   0  0  0  0  0  0  0  0  0  0  0  0
   12.6400   -0.5930   24.6630 H   0  0  0  0  0  0  0  0  0  0  0  0
   10.8310   -1.1760   26.3420 H   0  0  0  0  0  0  0  0  0  0  0  0
    6.5630    0.2810   24.4690 H   0  0  0  0  0  0  0  0  0  0  0  0
    5.5150   -1.1100   24.0440 H   0  0  0  0  0  0  0  0  0  0  0  0
    6.5290   -2.7830   20.3580 H   0  0  0  0  0  0  0  0  0  0  0  0
    5.2590   -2.4490   21.5340 H   0  0  0  0  0  0  0  0  0  0  0  0
    8.2560   -2.7330   21.9870 H   0  0  0  0  0  0  0  0  0  0  0  0
    5.8280   -3.4450   23.7350 H   0  0  0  0  0  0  0  0  0  0  0  0
    7.5100   -3.7790   24.1500 H   0  0  0  0  0  0  0  0  0  0  0  0
    6.7660   -4.5760   22.7460 H   0  0  0  0  0  0  0  0  0  0  0  0
  1  2  1  0  0  0  0
  1 55  1  0  0  0  0
  1 56  1  0  0  0  0
  1 57  1  0  0  0  0
  2  3  1  0  0  0  0
  2 23  1  0  0  0  0
  2 54  1  6  0  0  0
  3  4  1  0  0  0  0
  3 52  1  0  0  0  0
  3 53  1  0  0  0  0
  4  5  1  0  0  0  0
  4 21  1  0  0  0  0
  5  6  2  0  0  0  0
  5 14  1  0  0  0  0
  6  7  1  0  0  0  0
  6 20  1  0  0  0  0
  7  8  2  0  0  0  0
  8  9  1  0  0  0  0
  8 19  1  0  0  0  0
  9 10  2  0  0  0  0
  9 14  1  0  0  0  0
 10 11  1  0  0  0  0
 10 18  1  0  0  0  0
 11 12  2  0  0  0  0
 11 17  1  0  0  0  0
 12 13  1  0  0  0  0
 12 16  1  0  0  0  0
 13 14  2  0  0  0  0
 13 15  1  0  0  0  0
 21 22  2  0  0  0  0
 23 21  1  6  0  0  0
 23 24  1  0  0  0  0
 23 46  1  0  0  0  0
 24 25  1  0  0  0  0
 24 50  1  0  0  0  0
 24 51  1  0  0  0  0
 25 26  1  0  0  0  0
 25 38  1  0  0  0  0
 26 27  1  0  0  0  0
 26 36  1  0  0  0  0
 26 37  1  0  0  0  0
 27 28  1  0  0  0  0
 27 35  2  0  0  0  0
 28 29  2  0  0  0  0
 29 30  1  0  0  0  0
 30 31  1  0  0  0  0
 30 35  1  0  0  0  0
 31 32  1  0  0  0  0
 31 33  1  0  0  0  0
 31 34  1  0  0  0  0
 38 39  2  0  0  0  0
 38 40  1  0  0  0  0
 40 41  2  0  0  0  0
 40 46  1  0  0  0  0
 41 42  1  0  0  0  0
 41 49  1  0  0  0  0
 42 43  2  0  0  0  0
 42 48  1  0  0  0  0
 43 44  1  0  0  0  0
 43 45  1  0  0  0  0
 45 46  2  0  0  0  0
 45 47  1  0  0  0  0
M  END
>  <MODEL>
       1

$$$$
best_conformers_70.pdb
 OpenBabel02042510453D

 57 62  0  0  1  0  0  0  0  0999 V2000
    6.8070   -3.6310   23.3190 C   0  0  0  0  0  0  0  0  0  0  0  0
    7.2640   -2.4750   22.4180 C   0  0  1  0  0  0  0  0  0  0  0  0
    6.2930   -2.2040   21.2560 C   0  0  0  0  0  0  0  0  0  0  0  0
    6.4570   -0.7880   20.9760 N   0  0  0  0  0  0  0  0  0  0  0  0
    5.8490   -0.1510   19.8640 C   0  0  0  0  0  0  0  0  0  0  0  0
    6.2590   -0.4570   18.5920 C   0  0  0  0  0  0  0  0  0  0  0  0
    5.7690    0.1150   17.4640 N   0  0  0  0  0  0  0  0  0  0  0  0
    4.8070    0.9960   17.6100 C   0  0  0  0  0  0  0  0  0  0  0  0
    4.2400    1.3660   18.8600 C   0  0  0  0  0  0  0  0  0  0  0  0
    3.1780    2.3100   18.9550 C   0  0  0  0  0  0  0  0  0  0  0  0
    2.6290    2.6240   20.1670 C   0  0  0  0  0  0  0  0  0  0  0  0
    3.1130    1.9970   21.3420 C   0  0  0  0  0  0  0  0  0  0  0  0
    4.1400    1.0910   21.2730 C   0  0  0  0  0  0  0  0  0  0  0  0
    4.7560    0.7650   20.0310 C   0  0  0  0  0  0  0  0  0  0  0  0
    4.5010    0.6230   22.1840 H   0  0  0  0  0  0  0  0  0  0  0  0
    2.6740    2.2520   22.3040 H   0  0  0  0  0  0  0  0  0  0  0  0
    1.8240    3.3530   20.2390 H   0  0  0  0  0  0  0  0  0  0  0  0
    2.8200    2.7780   18.0400 H   0  0  0  0  0  0  0  0  0  0  0  0
    4.4220    1.4570   16.7020 H   0  0  0  0  0  0  0  0  0  0  0  0
    7.0430   -1.1960   18.4300 H   0  0  0  0  0  0  0  0  0  0  0  0
    7.0990   -0.0890   21.9740 C   0  0  0  0  0  0  0  0  0  0  0  0
    7.2860    1.1120   21.9640 O   0  0  0  0  0  0  0  0  0  0  0  0
    7.4740   -1.0730   23.0940 C   0  0  1  0  0  0  0  0  0  0  0  0
    6.5280   -0.7920   24.2840 C   0  0  0  0  0  0  0  0  0  0  0  0
    6.9300   -1.5150   25.4780 N   0  0  0  0  0  0  0  0  0  0  0  0
    5.9030   -1.9080   26.4370 C   0  0  0  0  0  0  0  0  0  0  0  0
    5.4200   -0.8000   27.3250 C   0  0  0  0  0  0  0  0  0  0  0  0
    5.8850   -0.5500   28.5710 N   0  0  0  0  0  0  0  0  0  0  0  0
    5.2660    0.5160   28.9920 N   0  0  0  0  0  0  0  0  0  0  0  0
    4.4460    0.8700   28.0290 N   0  0  0  0  0  0  0  0  0  0  0  0
    3.6500    2.0800   28.0970 C   0  0  0  0  0  0  0  0  0  0  0  0
    2.7340    1.8900   27.5320 H   0  0  0  0  0  0  0  0  0  0  0  0
    3.4350    2.2620   29.1540 H   0  0  0  0  0  0  0  0  0  0  0  0
    4.2110    2.9210   27.6670 H   0  0  0  0  0  0  0  0  0  0  0  0
    4.4900    0.0790   26.9700 N   0  0  0  0  0  0  0  0  0  0  0  0
    6.3260   -2.6960   27.0630 H   0  0  0  0  0  0  0  0  0  0  0  0
    5.0440   -2.3000   25.8780 H   0  0  0  0  0  0  0  0  0  0  0  0
    8.2360   -1.5500   25.8870 C   0  0  0  0  0  0  0  0  0  0  0  0
    8.5590   -1.9810   26.9800 O   0  0  0  0  0  0  0  0  0  0  0  0
    9.2530   -1.0810   24.9000 C   0  0  0  0  0  0  0  0  0  0  0  0
   10.5800   -0.9770   25.3170 C   0  0  0  0  0  0  0  0  0  0  0  0
   11.5820   -0.6840   24.4100 C   0  0  0  0  0  0  0  0  0  0  0  0
   11.2210   -0.5130   23.0790 C   0  0  0  0  0  0  0  0  0  0  0  0
   12.1840   -0.2350   22.1870 F   0  0  0  0  0  0  0  0  0  0  0  0
    9.9170   -0.6180   22.6370 C   0  0  0  0  0  0  0  0  0  0  0  0
    8.9020   -0.8800   23.5620 C   0  0  0  0  0  0  0  0  0  0  0  0
    9.7020   -0.4770   21.5830 H   0  0  0  0  0  0  0  0  0  0  0  0
   12.6270   -0.6000   24.6890 H   0  0  0  0  0  0  0  0  0  0  0  0
   10.8060   -1.1680   26.3600 H   0  0  0  0  0  0  0  0  0  0  0  0
    5.5010   -1.0970   24.0390 H   0  0  0  0  0  0  0  0  0  0  0  0
    6.5520    0.2920   24.4600 H   0  0  0  0  0  0  0  0  0  0  0  0
    5.2530   -2.4450   21.5340 H   0  0  0  0  0  0  0  0  0  0  0  0
    6.5270   -2.7860   20.3650 H   0  0  0  0  0  0  0  0  0  0  0  0
    8.2480   -2.7340   22.0000 H   0  0  0  0  0  0  0  0  0  0  0  0
    6.7510   -4.5730   22.7580 H   0  0  0  0  0  0  0  0  0  0  0  0
    5.8110   -3.4360   23.7400 H   0  0  0  0  0  0  0  0  0  0  0  0
    7.4910   -3.7720   24.1630 H   0  0  0  0  0  0  0  0  0  0  0  0
  1  2  1  0  0  0  0
  1 55  1  0  0  0  0
  1 56  1  0  0  0  0
  1 57  1  0  0  0  0
  2  3  1  0  0  0  0
  2 23  1  0  0  0  0
  2 54  1  6  0  0  0
  3  4  1  0  0  0  0
  3 52  1  0  0  0  0
  3 53  1  0  0  0  0
  4  5  1  0  0  0  0
  4 21  1  0  0  0  0
  5  6  2  0  0  0  0
  5 14  1  0  0  0  0
  6  7  1  0  0  0  0
  6 20  1  0  0  0  0
  7  8  2  0  0  0  0
  8  9  1  0  0  0  0
  8 19  1  0  0  0  0
  9 10  2  0  0  0  0
  9 14  1  0  0  0  0
 10 11  1  0  0  0  0
 10 18  1  0  0  0  0
 11 12  2  0  0  0  0
 11 17  1  0  0  0  0
 12 13  1  0  0  0  0
 12 16  1  0  0  0  0
 13 14  2  0  0  0  0
 13 15  1  0  0  0  0
 21 22  2  0  0  0  0
 23 21  1  6  0  0  0
 23 24  1  0  0  0  0
 23 46  1  0  0  0  0
 24 25  1  0  0  0  0
 24 50  1  0  0  0  0
 24 51  1  0  0  0  0
 25 26  1  0  0  0  0
 25 38  1  0  0  0  0
 26 27  1  0  0  0  0
 26 36  1  0  0  0  0
 26 37  1  0  0  0  0
 27 28  1  0  0  0  0
 27 35  2  0  0  0  0
 28 29  2  0  0  0  0
 29 30  1  0  0  0  0
 30 31  1  0  0  0  0
 30 35  1  0  0  0  0
 31 32  1  0  0  0  0
 31 33  1  0  0  0  0
 31 34  1  0  0  0  0
 38 39  2  0  0  0  0
 38 40  1  0  0  0  0
 40 41  2  0  0  0  0
 40 46  1  0  0  0  0
 41 42  1  0  0  0  0
 41 49  1  0  0  0  0
 42 43  2  0  0  0  0
 42 48  1  0  0  0  0
 43 44  1  0  0  0  0
 43 45  1  0  0  0  0
 45 46  2  0  0  0  0
 45 47  1  0  0  0  0
M  END
>  <MODEL>
       2

$$$$
best_conformers_70.pdb
 OpenBabel02042510453D

 57 62  0  0  1  0  0  0  0  0999 V2000
    6.8190   -3.6150   23.2760 C   0  0  0  0  0  0  0  0  0  0  0  0
    7.2590   -2.4750   22.3700 C   0  0  1  0  0  0  0  0  0  0  0  0
    6.2500   -2.2020   21.2500 C   0  0  0  0  0  0  0  0  0  0  0  0
    6.4400   -0.8010   20.9540 N   0  0  0  0  0  0  0  0  0  0  0  0
    5.8260   -0.1630   19.8580 C   0  0  0  0  0  0  0  0  0  0  0  0
    6.2570   -0.4600   18.5920 C   0  0  0  0  0  0  0  0  0  0  0  0
    5.7890    0.1130   17.4590 N   0  0  0  0  0  0  0  0  0  0  0  0
    4.8210    0.9910   17.6000 C   0  0  0  0  0  0  0  0  0  0  0  0
    4.2560    1.3580   18.8550 C   0  0  0  0  0  0  0  0  0  0  0  0
    3.2000    2.3020   18.9420 C   0  0  0  0  0  0  0  0  0  0  0  0
    2.6460    2.6110   20.1540 C   0  0  0  0  0  0  0  0  0  0  0  0
    3.1160    1.9970   21.3370 C   0  0  0  0  0  0  0  0  0  0  0  0
    4.1450    1.0910   21.2840 C   0  0  0  0  0  0  0  0  0  0  0  0
    4.7530    0.7610   20.0350 C   0  0  0  0  0  0  0  0  0  0  0  0
    4.4950    0.6330   22.2070 H   0  0  0  0  0  0  0  0  0  0  0  0
    2.6570    2.2490   22.2900 H   0  0  0  0  0  0  0  0  0  0  0  0
    1.8370    3.3330   20.2150 H   0  0  0  0  0  0  0  0  0  0  0  0
    2.8420    2.7640   18.0260 H   0  0  0  0  0  0  0  0  0  0  0  0
    4.4230    1.4540   16.6950 H   0  0  0  0  0  0  0  0  0  0  0  0
    7.0610   -1.1840   18.4760 H   0  0  0  0  0  0  0  0  0  0  0  0
    7.1130   -0.1060   21.9280 C   0  0  0  0  0  0  0  0  0  0  0  0
    7.3010    1.0930   21.9080 O   0  0  0  0  0  0  0  0  0  0  0  0
    7.4980   -1.0770   23.0440 C   0  0  1  0  0  0  0  0  0  0  0  0
    6.5400   -0.7460   24.2090 C   0  0  0  0  0  0  0  0  0  0  0  0
    6.9370   -1.3750   25.4590 N   0  0  0  0  0  0  0  0  0  0  0  0
    5.9140   -1.6630   26.4620 C   0  0  0  0  0  0  0  0  0  0  0  0
    5.5670   -3.1230   26.6100 C   0  0  0  0  0  0  0  0  0  0  0  0
    6.1820   -3.8760   27.5520 N   0  0  0  0  0  0  0  0  0  0  0  0
    5.6840   -5.0720   27.4630 N   0  0  0  0  0  0  0  0  0  0  0  0
    4.7880   -5.0350   26.5040 N   0  0  0  0  0  0  0  0  0  0  0  0
    4.0650   -6.2390   26.1290 C   0  0  0  0  0  0  0  0  0  0  0  0
    4.7950   -7.0410   25.9880 H   0  0  0  0  0  0  0  0  0  0  0  0
    3.3580   -6.5270   26.9100 H   0  0  0  0  0  0  0  0  0  0  0  0
    3.5110   -6.0670   25.2110 H   0  0  0  0  0  0  0  0  0  0  0  0
    4.6610   -3.8380   25.9380 N   0  0  0  0  0  0  0  0  0  0  0  0
    5.0460   -1.0380   26.2230 H   0  0  0  0  0  0  0  0  0  0  0  0
    6.2910   -1.3520   27.4420 H   0  0  0  0  0  0  0  0  0  0  0  0
    8.2500   -1.5370   25.8310 C   0  0  0  0  0  0  0  0  0  0  0  0
    8.5530   -2.0020   26.9120 O   0  0  0  0  0  0  0  0  0  0  0  0
    9.2800   -1.1260   24.8320 C   0  0  0  0  0  0  0  0  0  0  0  0
   10.6110   -1.0450   25.2410 C   0  0  0  0  0  0  0  0  0  0  0  0
   11.6070   -0.7340   24.3360 C   0  0  0  0  0  0  0  0  0  0  0  0
   11.2430   -0.5230   23.0100 C   0  0  0  0  0  0  0  0  0  0  0  0
   12.2060   -0.2610   22.1120 F   0  0  0  0  0  0  0  0  0  0  0  0
    9.9320   -0.6010   22.5790 C   0  0  0  0  0  0  0  0  0  0  0  0
    8.9250   -0.8940   23.5030 C   0  0  0  0  0  0  0  0  0  0  0  0
    9.6880   -0.4560   21.5330 H   0  0  0  0  0  0  0  0  0  0  0  0
   12.6510   -0.6710   24.6270 H   0  0  0  0  0  0  0  0  0  0  0  0
   10.8460   -1.2350   26.2830 H   0  0  0  0  0  0  0  0  0  0  0  0
    5.5250   -1.0680   23.9470 H   0  0  0  0  0  0  0  0  0  0  0  0
    6.4850    0.3490   24.3020 H   0  0  0  0  0  0  0  0  0  0  0  0
    5.2170   -2.3970   21.5760 H   0  0  0  0  0  0  0  0  0  0  0  0
    6.4260   -2.8000   20.3570 H   0  0  0  0  0  0  0  0  0  0  0  0
    8.2140   -2.7530   21.9020 H   0  0  0  0  0  0  0  0  0  0  0  0
    5.8120   -3.4370   23.6660 H   0  0  0  0  0  0  0  0  0  0  0  0
    7.5010   -3.7290   24.1230 H   0  0  0  0  0  0  0  0  0  0  0  0
    6.8010   -4.5600   22.7230 H   0  0  0  0  0  0  0  0  0  0  0  0
  1  2  1  0  0  0  0
  1 55  1  0  0  0  0
  1 56  1  0  0  0  0
  1 57  1  0  0  0  0
  2  3  1  0  0  0  0
  2 23  1  0  0  0  0
  2 54  1  6  0  0  0
  3  4  1  0  0  0  0
  3 52  1  0  0  0  0
  3 53  1  0  0  0  0
  4  5  1  0  0  0  0
  4 21  1  0  0  0  0
  5  6  2  0  0  0  0
  5 14  1  0  0  0  0
  6  7  1  0  0  0  0
  6 20  1  0  0  0  0
  7  8  2  0  0  0  0
  8  9  1  0  0  0  0
  8 19  1  0  0  0  0
  9 10  2  0  0  0  0
  9 14  1  0  0  0  0
 10 11  1  0  0  0  0
 10 18  1  0  0  0  0
 11 12  2  0  0  0  0
 11 17  1  0  0  0  0
 12 13  1  0  0  0  0
 12 16  1  0  0  0  0
 13 14  2  0  0  0  0
 13 15  1  0  0  0  0
 21 22  2  0  0  0  0
 23 21  1  6  0  0  0
 23 24  1  0  0  0  0
 23 46  1  0  0  0  0
 24 25  1  0  0  0  0
 24 50  1  0  0  0  0
 24 51  1  0  0  0  0
 25 26  1  0  0  0  0
 25 38  1  0  0  0  0
 26 27  1  0  0  0  0
 26 36  1  0  0  0  0
 26 37  1  0  0  0  0
 27 28  1  0  0  0  0
 27 35  2  0  0  0  0
 28 29  2  0  0  0  0
 29 30  1  0  0  0  0
 30 31  1  0  0  0  0
 30 35  1  0  0  0  0
 31 32  1  0  0  0  0
 31 33  1  0  0  0  0
 31 34  1  0  0  0  0
 38 39  2  0  0  0  0
 38 40  1  0  0  0  0
 40 41  2  0  0  0  0
 40 46  1  0  0  0  0
 41 42  1  0  0  0  0
 41 49  1  0  0  0  0
 42 43  2  0  0  0  0
 42 48  1  0  0  0  0
 43 44  1  0  0  0  0
 43 45  1  0  0  0  0
 45 46  2  0  0  0  0
 45 47  1  0  0  0  0
M  END
>  <MODEL>
       3

$$$$
