best_conformers_31.pdb
 OpenBabel02042510453D

 64 70  0  0  1  0  0  0  0  0999 V2000
    3.6560   -3.9800   25.3530 O   0  0  0  0  0  0  0  0  0  0  0  0
    4.5650   -3.4500   24.7310 C   0  0  0  0  0  0  0  0  0  0  0  0
    5.0620   -2.0730   25.0520 C   0  0  0  0  0  0  0  0  0  0  0  0
    4.5100   -1.4270   26.1580 C   0  0  0  0  0  0  0  0  0  0  0  0
    4.8250   -0.1130   26.4360 C   0  0  0  0  0  0  0  0  0  0  0  0
    5.6920    0.5560   25.5760 C   0  0  0  0  0  0  0  0  0  0  0  0
    6.0620    2.2280   25.8890 Cl  0  0  0  0  0  0  0  0  0  0  0  0
    6.2600   -0.0730   24.4820 C   0  0  0  0  0  0  0  0  0  0  0  0
    5.9810   -1.4210   24.2210 C   0  0  0  0  0  0  0  0  0  0  0  0
    6.5600   -2.1120   22.9860 C   0  0  1  0  0  0  0  0  0  0  0  0
    6.4940   -3.6390   23.2310 C   0  0  0  0  0  0  0  0  0  0  0  0
    5.1750   -4.0530   23.6650 N   0  0  0  0  0  0  0  0  0  0  0  0
    4.6120   -5.2790   23.1420 C   0  0  0  0  0  0  0  0  0  0  0  0
    5.0920   -6.5190   23.8490 C   0  0  0  0  0  0  0  0  0  0  0  0
    4.5290   -7.1540   24.8140 N   0  0  0  0  0  0  0  0  0  0  0  0
    5.3820   -8.2030   25.1600 N   0  0  0  0  0  0  0  0  0  0  0  0
    6.3760   -8.1130   24.3510 C   0  0  0  0  0  0  0  0  0  0  0  0
    6.2730   -7.0830   23.4810 O   0  0  0  0  0  0  0  0  0  0  0  0
    7.2490   -8.7480   24.2790 H   0  0  0  0  0  0  0  0  0  0  0  0
    3.5320   -5.2310   23.2780 H   0  0  0  0  0  0  0  0  0  0  0  0
    4.8470   -5.3300   22.0720 H   0  0  0  0  0  0  0  0  0  0  0  0
    6.7120   -4.1780   22.3090 H   0  0  0  0  0  0  0  0  0  0  0  0
    7.2380   -3.9170   23.9950 H   0  0  0  0  0  0  0  0  0  0  0  0
    5.6900   -1.7400   21.7630 C   0  0  0  0  0  0  0  0  0  0  0  0
    4.5640   -2.1220   21.5340 O   0  0  0  0  0  0  0  0  0  0  0  0
    6.3970   -0.8690   20.9650 N   0  0  0  0  0  0  0  0  0  0  0  0
    5.8030   -0.2070   19.8570 C   0  0  0  0  0  0  0  0  0  0  0  0
    6.2550   -0.4590   18.5860 C   0  0  0  0  0  0  0  0  0  0  0  0
    5.7800    0.1320   17.4610 N   0  0  0  0  0  0  0  0  0  0  0  0
    4.8060    1.0000   17.6080 C   0  0  0  0  0  0  0  0  0  0  0  0
    4.2390    1.3640   18.8610 C   0  0  0  0  0  0  0  0  0  0  0  0
    3.1910    2.3220   18.9560 C   0  0  0  0  0  0  0  0  0  0  0  0
    2.6780    2.6700   20.1750 C   0  0  0  0  0  0  0  0  0  0  0  0
    3.1990    2.0850   21.3540 C   0  0  0  0  0  0  0  0  0  0  0  0
    4.2140    1.1620   21.2910 C   0  0  0  0  0  0  0  0  0  0  0  0
    4.7510    0.7560   20.0330 C   0  0  0  0  0  0  0  0  0  0  0  0
    4.6020    0.7260   22.2120 H   0  0  0  0  0  0  0  0  0  0  0  0
    2.7840    2.3700   22.3170 H   0  0  0  0  0  0  0  0  0  0  0  0
    1.8770    3.4020   20.2480 H   0  0  0  0  0  0  0  0  0  0  0  0
    2.8160    2.7760   18.0400 H   0  0  0  0  0  0  0  0  0  0  0  0
    4.4150    1.4600   16.7000 H   0  0  0  0  0  0  0  0  0  0  0  0
    7.0480   -1.1890   18.4270 H   0  0  0  0  0  0  0  0  0  0  0  0
    7.7550   -0.6150   21.4070 C   0  0  0  0  0  0  0  0  0  0  0  0
    7.9770   -1.5830   22.5950 C   0  0  2  0  0  0  0  0  0  0  0  0
    9.0490   -2.6490   22.2440 C   0  0  0  0  0  0  0  0  0  0  0  0
   10.3530   -2.0650   21.9730 N   0  0  0  0  0  0  0  0  0  0  0  0
   11.1990   -1.5900   22.9190 C   0  0  0  0  0  0  0  0  0  0  0  0
   12.4110   -0.9630   22.5440 C   0  0  0  0  0  0  0  0  0  0  0  0
   13.1980   -0.4860   23.5630 C   0  0  0  0  0  0  0  0  0  0  0  0
   12.8670   -0.6060   24.8620 N   0  0  0  0  0  0  0  0  0  0  0  0
   11.7180   -1.2250   25.0950 C   0  0  0  0  0  0  0  0  0  0  0  0
   10.8520   -1.7170   24.2060 N   0  0  0  0  0  0  0  0  0  0  0  0
   11.4360   -1.3440   26.1440 H   0  0  0  0  0  0  0  0  0  0  0  0
   14.1440    0.0240   23.3680 H   0  0  0  0  0  0  0  0  0  0  0  0
   12.6970   -0.8380   21.5000 H   0  0  0  0  0  0  0  0  0  0  0  0
   10.6930   -2.0420   21.0250 H   0  0  0  0  0  0  0  0  0  0  0  0
    9.1550   -3.3620   23.0730 H   0  0  0  0  0  0  0  0  0  0  0  0
    8.7610   -3.1920   21.3400 H   0  0  0  0  0  0  0  0  0  0  0  0
    8.4070   -1.0600   23.4560 H   0  0  0  0  0  0  0  0  0  0  0  0
    7.8860    0.4360   21.7050 H   0  0  0  0  0  0  0  0  0  0  0  0
    8.4530   -0.7940   20.5810 H   0  0  0  0  0  0  0  0  0  0  0  0
    6.9010    0.5160   23.8340 H   0  0  0  0  0  0  0  0  0  0  0  0
    4.3980    0.4080   27.2850 H   0  0  0  0  0  0  0  0  0  0  0  0
    3.8090   -1.9820   26.7710 H   0  0  0  0  0  0  0  0  0  0  0  0
  1  2  2  0  0  0  0
  2  3  1  0  0  0  0
  2 12  1  0  0  0  0
  3  4  2  0  0  0  0
  3  9  1  0  0  0  0
  4  5  1  0  0  0  0
  4 64  1  0  0  0  0
  5  6  2  0  0  0  0
  5 63  1  0  0  0  0
  6  7  1  0  0  0  0
  6  8  1  0  0  0  0
  8  9  2  0  0  0  0
  8 62  1  0  0  0  0
 10  9  1  1  0  0  0
 10 11  1  0  0  0  0
 10 24  1  0  0  0  0
 10 44  1  0  0  0  0
 11 12  1  0  0  0  0
 11 22  1  0  0  0  0
 11 23  1  0  0  0  0
 12 13  1  0  0  0  0
 13 14  1  0  0  0  0
 13 20  1  0  0  0  0
 13 21  1  0  0  0  0
 14 15  2  0  0  0  0
 14 18  1  0  0  0  0
 15 16  1  0  0  0  0
 16 17  2  0  0  0  0
 17 18  1  0  0  0  0
 17 19  1  0  0  0  0
 24 25  2  0  0  0  0
 24 26  1  0  0  0  0
 26 27  1  0  0  0  0
 26 43  1  0  0  0  0
 27 28  2  0  0  0  0
 27 36  1  0  0  0  0
 28 29  1  0  0  0  0
 28 42  1  0  0  0  0
 29 30  2  0  0  0  0
 30 31  1  0  0  0  0
 30 41  1  0  0  0  0
 31 32  2  0  0  0  0
 31 36  1  0  0  0  0
 32 33  1  0  0  0  0
 32 40  1  0  0  0  0
 33 34  2  0  0  0  0
 33 39  1  0  0  0  0
 34 35  1  0  0  0  0
 34 38  1  0  0  0  0
 35 36  2  0  0  0  0
 35 37  1  0  0  0  0
 43 44  1  0  0  0  0
 43 60  1  0  0  0  0
 43 61  1  0  0  0  0
 44 45  1  0  0  0  0
 44 59  1  1  0  0  0
 45 46  1  0  0  0  0
 45 57  1  0  0  0  0
 45 58  1  0  0  0  0
 46 47  1  0  0  0  0
 46 56  1  0  0  0  0
 47 48  2  0  0  0  0
 47 52  1  0  0  0  0
 48 49  1  0  0  0  0
 48 55  1  0  0  0  0
 49 50  2  0  0  0  0
 49 54  1  0  0  0  0
 50 51  1  0  0  0  0
 51 52  2  0  0  0  0
 51 53  1  0  0  0  0
M  END
>  <MODEL>
       1

$$$$
best_conformers_31.pdb
 OpenBabel02042510453D

 64 70  0  0  1  0  0  0  0  0999 V2000
    3.6720   -4.0250   25.3490 O   0  0  0  0  0  0  0  0  0  0  0  0
    4.5650   -3.4720   24.7240 C   0  0  0  0  0  0  0  0  0  0  0  0
    5.0570   -2.0930   25.0480 C   0  0  0  0  0  0  0  0  0  0  0  0
    4.5040   -1.4500   26.1560 C   0  0  0  0  0  0  0  0  0  0  0  0
    4.8200   -0.1370   26.4390 C   0  0  0  0  0  0  0  0  0  0  0  0
    5.6880    0.5350   25.5830 C   0  0  0  0  0  0  0  0  0  0  0  0
    6.0580    2.2060   25.9040 Cl  0  0  0  0  0  0  0  0  0  0  0  0
    6.2570   -0.0900   24.4870 C   0  0  0  0  0  0  0  0  0  0  0  0
    5.9810   -1.4380   24.2220 C   0  0  0  0  0  0  0  0  0  0  0  0
    6.5650   -2.1210   22.9830 C   0  0  1  0  0  0  0  0  0  0  0  0
    6.4930   -3.6480   23.2180 C   0  0  0  0  0  0  0  0  0  0  0  0
    5.1670   -4.0580   23.6460 N   0  0  0  0  0  0  0  0  0  0  0  0
    4.6050   -5.2850   23.1200 C   0  0  0  0  0  0  0  0  0  0  0  0
    5.1640   -6.5240   23.7610 C   0  0  0  0  0  0  0  0  0  0  0  0
    6.2300   -7.1650   23.4230 N   0  0  0  0  0  0  0  0  0  0  0  0
    6.3670   -8.2130   24.3370 N   0  0  0  0  0  0  0  0  0  0  0  0
    5.3640   -8.1100   25.1330 C   0  0  0  0  0  0  0  0  0  0  0  0
    4.5460   -7.0770   24.8320 O   0  0  0  0  0  0  0  0  0  0  0  0
    5.1060   -8.7230   25.9870 H   0  0  0  0  0  0  0  0  0  0  0  0
    3.5210   -5.2500   23.2430 H   0  0  0  0  0  0  0  0  0  0  0  0
    4.8480   -5.3200   22.0530 H   0  0  0  0  0  0  0  0  0  0  0  0
    7.2340   -3.9320   23.9820 H   0  0  0  0  0  0  0  0  0  0  0  0
    6.7150   -4.1830   22.2940 H   0  0  0  0  0  0  0  0  0  0  0  0
    5.6940   -1.7430   21.7620 C   0  0  0  0  0  0  0  0  0  0  0  0
    4.5670   -2.1230   21.5340 O   0  0  0  0  0  0  0  0  0  0  0  0
    6.4000   -0.8700   20.9650 N   0  0  0  0  0  0  0  0  0  0  0  0
    5.8040   -0.2070   19.8580 C   0  0  0  0  0  0  0  0  0  0  0  0
    6.2550   -0.4590   18.5870 C   0  0  0  0  0  0  0  0  0  0  0  0
    5.7790    0.1320   17.4610 N   0  0  0  0  0  0  0  0  0  0  0  0
    4.8050    1.0000   17.6070 C   0  0  0  0  0  0  0  0  0  0  0  0
    4.2390    1.3640   18.8610 C   0  0  0  0  0  0  0  0  0  0  0  0
    3.1910    2.3220   18.9560 C   0  0  0  0  0  0  0  0  0  0  0  0
    2.6780    2.6700   20.1750 C   0  0  0  0  0  0  0  0  0  0  0  0
    3.1990    2.0840   21.3530 C   0  0  0  0  0  0  0  0  0  0  0  0
    4.2130    1.1620   21.2910 C   0  0  0  0  0  0  0  0  0  0  0  0
    4.7520    0.7560   20.0330 C   0  0  0  0  0  0  0  0  0  0  0  0
    4.6030    0.7250   22.2110 H   0  0  0  0  0  0  0  0  0  0  0  0
    2.7840    2.3690   22.3170 H   0  0  0  0  0  0  0  0  0  0  0  0
    1.8760    3.4020   20.2480 H   0  0  0  0  0  0  0  0  0  0  0  0
    2.8160    2.7770   18.0410 H   0  0  0  0  0  0  0  0  0  0  0  0
    4.4140    1.4610   16.7000 H   0  0  0  0  0  0  0  0  0  0  0  0
    7.0470   -1.1890   18.4260 H   0  0  0  0  0  0  0  0  0  0  0  0
    7.7580   -0.6160   21.4090 C   0  0  0  0  0  0  0  0  0  0  0  0
    7.9850   -1.5860   22.5950 C   0  0  2  0  0  0  0  0  0  0  0  0
    9.0640   -2.6410   22.2250 C   0  0  0  0  0  0  0  0  0  0  0  0
   10.3690   -2.0650   21.9650 N   0  0  0  0  0  0  0  0  0  0  0  0
   11.2140   -1.5730   22.9020 C   0  0  0  0  0  0  0  0  0  0  0  0
   10.9850   -1.7260   24.2820 C   0  0  0  0  0  0  0  0  0  0  0  0
   11.9180   -1.1640   25.1300 C   0  0  0  0  0  0  0  0  0  0  0  0
   12.9920   -0.4930   24.6890 N   0  0  0  0  0  0  0  0  0  0  0  0
   13.1120   -0.4240   23.3670 C   0  0  0  0  0  0  0  0  0  0  0  0
   12.3000   -0.9290   22.4430 N   0  0  0  0  0  0  0  0  0  0  0  0
   13.9900    0.1180   23.0040 H   0  0  0  0  0  0  0  0  0  0  0  0
   11.8100   -1.2430   26.2140 H   0  0  0  0  0  0  0  0  0  0  0  0
   10.1160   -2.2560   24.6520 H   0  0  0  0  0  0  0  0  0  0  0  0
   10.7150   -1.9870   21.0200 H   0  0  0  0  0  0  0  0  0  0  0  0
    9.1600   -3.3910   23.0240 H   0  0  0  0  0  0  0  0  0  0  0  0
    8.7790   -3.1670   21.3100 H   0  0  0  0  0  0  0  0  0  0  0  0
    8.4020   -1.0530   23.4580 H   0  0  0  0  0  0  0  0  0  0  0  0
    8.4560   -0.7920   20.5820 H   0  0  0  0  0  0  0  0  0  0  0  0
    7.8840    0.4340   21.7110 H   0  0  0  0  0  0  0  0  0  0  0  0
    6.8950    0.5050   23.8400 H   0  0  0  0  0  0  0  0  0  0  0  0
    4.3940    0.3810   27.2910 H   0  0  0  0  0  0  0  0  0  0  0  0
    3.8030   -2.0060   26.7670 H   0  0  0  0  0  0  0  0  0  0  0  0
  1  2  2  0  0  0  0
  2  3  1  0  0  0  0
  2 12  1  0  0  0  0
  3  4  2  0  0  0  0
  3  9  1  0  0  0  0
  4  5  1  0  0  0  0
  4 64  1  0  0  0  0
  5  6  2  0  0  0  0
  5 63  1  0  0  0  0
  6  7  1  0  0  0  0
  6  8  1  0  0  0  0
  8  9  2  0  0  0  0
  8 62  1  0  0  0  0
 10  9  1  1  0  0  0
 10 11  1  0  0  0  0
 10 24  1  0  0  0  0
 10 44  1  0  0  0  0
 11 12  1  0  0  0  0
 11 22  1  0  0  0  0
 11 23  1  0  0  0  0
 12 13  1  0  0  0  0
 13 14  1  0  0  0  0
 13 20  1  0  0  0  0
 13 21  1  0  0  0  0
 14 15  2  0  0  0  0
 14 18  1  0  0  0  0
 15 16  1  0  0  0  0
 16 17  2  0  0  0  0
 17 18  1  0  0  0  0
 17 19  1  0  0  0  0
 24 25  2  0  0  0  0
 24 26  1  0  0  0  0
 26 27  1  0  0  0  0
 26 43  1  0  0  0  0
 27 28  2  0  0  0  0
 27 36  1  0  0  0  0
 28 29  1  0  0  0  0
 28 42  1  0  0  0  0
 29 30  2  0  0  0  0
 30 31  1  0  0  0  0
 30 41  1  0  0  0  0
 31 32  2  0  0  0  0
 31 36  1  0  0  0  0
 32 33  1  0  0  0  0
 32 40  1  0  0  0  0
 33 34  2  0  0  0  0
 33 39  1  0  0  0  0
 34 35  1  0  0  0  0
 34 38  1  0  0  0  0
 35 36  2  0  0  0  0
 35 37  1  0  0  0  0
 43 44  1  0  0  0  0
 43 60  1  0  0  0  0
 43 61  1  0  0  0  0
 44 45  1  0  0  0  0
 44 59  1  1  0  0  0
 45 46  1  0  0  0  0
 45 57  1  0  0  0  0
 45 58  1  0  0  0  0
 46 47  1  0  0  0  0
 46 56  1  0  0  0  0
 47 48  2  0  0  0  0
 47 52  1  0  0  0  0
 48 49  1  0  0  0  0
 48 55  1  0  0  0  0
 49 50  2  0  0  0  0
 49 54  1  0  0  0  0
 50 51  1  0  0  0  0
 51 52  2  0  0  0  0
 51 53  1  0  0  0  0
M  END
>  <MODEL>
       2

$$$$
best_conformers_31.pdb
 OpenBabel02042510453D

 64 70  0  0  1  0  0  0  0  0999 V2000
    3.6650   -4.0190   25.3540 O   0  0  0  0  0  0  0  0  0  0  0  0
    4.5570   -3.4680   24.7280 C   0  0  0  0  0  0  0  0  0  0  0  0
    5.0480   -2.0870   25.0500 C   0  0  0  0  0  0  0  0  0  0  0  0
    4.4950   -1.4400   26.1550 C   0  0  0  0  0  0  0  0  0  0  0  0
    4.8100   -0.1260   26.4360 C   0  0  0  0  0  0  0  0  0  0  0  0
    5.6790    0.5440   25.5790 C   0  0  0  0  0  0  0  0  0  0  0  0
    6.0490    2.2170   25.8960 Cl  0  0  0  0  0  0  0  0  0  0  0  0
    6.2480   -0.0840   24.4850 C   0  0  0  0  0  0  0  0  0  0  0  0
    5.9690   -1.4320   24.2220 C   0  0  0  0  0  0  0  0  0  0  0  0
    6.5530   -2.1180   22.9850 C   0  0  1  0  0  0  0  0  0  0  0  0
    6.4830   -3.6460   23.2230 C   0  0  0  0  0  0  0  0  0  0  0  0
    5.1580   -4.0560   23.6510 N   0  0  0  0  0  0  0  0  0  0  0  0
    4.5970   -5.2840   23.1250 C   0  0  0  0  0  0  0  0  0  0  0  0
    5.1530   -6.5220   23.7720 C   0  0  0  0  0  0  0  0  0  0  0  0
    6.2240   -7.1610   23.4440 N   0  0  0  0  0  0  0  0  0  0  0  0
    6.3550   -8.2070   24.3600 N   0  0  0  0  0  0  0  0  0  0  0  0
    5.3450   -8.1050   25.1480 C   0  0  0  0  0  0  0  0  0  0  0  0
    4.5280   -7.0740   24.8400 O   0  0  0  0  0  0  0  0  0  0  0  0
    5.0820   -8.7190   26.0000 H   0  0  0  0  0  0  0  0  0  0  0  0
    3.5130   -5.2480   23.2420 H   0  0  0  0  0  0  0  0  0  0  0  0
    4.8460   -5.3230   22.0600 H   0  0  0  0  0  0  0  0  0  0  0  0
    6.7090   -4.1820   22.3000 H   0  0  0  0  0  0  0  0  0  0  0  0
    7.2240   -3.9300   23.9870 H   0  0  0  0  0  0  0  0  0  0  0  0
    5.6860   -1.7410   21.7620 C   0  0  0  0  0  0  0  0  0  0  0  0
    4.5590   -2.1220   21.5330 O   0  0  0  0  0  0  0  0  0  0  0  0
    6.3950   -0.8700   20.9650 N   0  0  0  0  0  0  0  0  0  0  0  0
    5.8030   -0.2070   19.8570 C   0  0  0  0  0  0  0  0  0  0  0  0
    6.2540   -0.4580   18.5860 C   0  0  0  0  0  0  0  0  0  0  0  0
    5.7780    0.1320   17.4600 N   0  0  0  0  0  0  0  0  0  0  0  0
    4.8050    1.0010   17.6060 C   0  0  0  0  0  0  0  0  0  0  0  0
    4.2380    1.3650   18.8600 C   0  0  0  0  0  0  0  0  0  0  0  0
    3.1900    2.3230   18.9560 C   0  0  0  0  0  0  0  0  0  0  0  0
    2.6780    2.6700   20.1750 C   0  0  0  0  0  0  0  0  0  0  0  0
    3.1990    2.0850   21.3530 C   0  0  0  0  0  0  0  0  0  0  0  0
    4.2130    1.1620   21.2900 C   0  0  0  0  0  0  0  0  0  0  0  0
    4.7510    0.7570   20.0320 C   0  0  0  0  0  0  0  0  0  0  0  0
    4.6030    0.7250   22.2100 H   0  0  0  0  0  0  0  0  0  0  0  0
    2.7850    2.3690   22.3160 H   0  0  0  0  0  0  0  0  0  0  0  0
    1.8770    3.4020   20.2490 H   0  0  0  0  0  0  0  0  0  0  0  0
    2.8150    2.7780   18.0400 H   0  0  0  0  0  0  0  0  0  0  0  0
    4.4140    1.4630   16.6990 H   0  0  0  0  0  0  0  0  0  0  0  0
    7.0460   -1.1890   18.4260 H   0  0  0  0  0  0  0  0  0  0  0  0
    7.7520   -0.6190   21.4100 C   0  0  0  0  0  0  0  0  0  0  0  0
    7.9720   -1.5890   22.5970 C   0  0  2  0  0  0  0  0  0  0  0  0
    9.0440   -2.6550   22.2460 C   0  0  0  0  0  0  0  0  0  0  0  0
   10.3490   -2.0700   21.9790 N   0  0  0  0  0  0  0  0  0  0  0  0
   11.1920   -1.5930   22.9280 C   0  0  0  0  0  0  0  0  0  0  0  0
   12.4040   -0.9630   22.5580 C   0  0  0  0  0  0  0  0  0  0  0  0
   13.1880   -0.4870   23.5800 C   0  0  0  0  0  0  0  0  0  0  0  0
   12.8550   -0.6090   24.8780 N   0  0  0  0  0  0  0  0  0  0  0  0
   11.7060   -1.2290   25.1070 C   0  0  0  0  0  0  0  0  0  0  0  0
   10.8430   -1.7220   24.2150 N   0  0  0  0  0  0  0  0  0  0  0  0
   11.4230   -1.3490   26.1550 H   0  0  0  0  0  0  0  0  0  0  0  0
   14.1330    0.0240   23.3860 H   0  0  0  0  0  0  0  0  0  0  0  0
   12.6920   -0.8370   21.5160 H   0  0  0  0  0  0  0  0  0  0  0  0
   10.6890   -2.0450   21.0320 H   0  0  0  0  0  0  0  0  0  0  0  0
    8.7560   -3.1960   21.3410 H   0  0  0  0  0  0  0  0  0  0  0  0
    9.1490   -3.3700   23.0720 H   0  0  0  0  0  0  0  0  0  0  0  0
    8.4010   -1.0680   23.4590 H   0  0  0  0  0  0  0  0  0  0  0  0
    8.4520   -0.7970   20.5860 H   0  0  0  0  0  0  0  0  0  0  0  0
    7.8830    0.4310   21.7110 H   0  0  0  0  0  0  0  0  0  0  0  0
    6.8910    0.5070   23.8390 H   0  0  0  0  0  0  0  0  0  0  0  0
    4.3820    0.3930   27.2860 H   0  0  0  0  0  0  0  0  0  0  0  0
    3.7930   -1.9940   26.7680 H   0  0  0  0  0  0  0  0  0  0  0  0
  1  2  2  0  0  0  0
  2  3  1  0  0  0  0
  2 12  1  0  0  0  0
  3  4  2  0  0  0  0
  3  9  1  0  0  0  0
  4  5  1  0  0  0  0
  4 64  1  0  0  0  0
  5  6  2  0  0  0  0
  5 63  1  0  0  0  0
  6  7  1  0  0  0  0
  6  8  1  0  0  0  0
  8  9  2  0  0  0  0
  8 62  1  0  0  0  0
 10  9  1  1  0  0  0
 10 11  1  0  0  0  0
 10 24  1  0  0  0  0
 10 44  1  0  0  0  0
 11 12  1  0  0  0  0
 11 22  1  0  0  0  0
 11 23  1  0  0  0  0
 12 13  1  0  0  0  0
 13 14  1  0  0  0  0
 13 20  1  0  0  0  0
 13 21  1  0  0  0  0
 14 15  2  0  0  0  0
 14 18  1  0  0  0  0
 15 16  1  0  0  0  0
 16 17  2  0  0  0  0
 17 18  1  0  0  0  0
 17 19  1  0  0  0  0
 24 25  2  0  0  0  0
 24 26  1  0  0  0  0
 26 27  1  0  0  0  0
 26 43  1  0  0  0  0
 27 28  2  0  0  0  0
 27 36  1  0  0  0  0
 28 29  1  0  0  0  0
 28 42  1  0  0  0  0
 29 30  2  0  0  0  0
 30 31  1  0  0  0  0
 30 41  1  0  0  0  0
 31 32  2  0  0  0  0
 31 36  1  0  0  0  0
 32 33  1  0  0  0  0
 32 40  1  0  0  0  0
 33 34  2  0  0  0  0
 33 39  1  0  0  0  0
 34 35  1  0  0  0  0
 34 38  1  0  0  0  0
 35 36  2  0  0  0  0
 35 37  1  0  0  0  0
 43 44  1  0  0  0  0
 43 60  1  0  0  0  0
 43 61  1  0  0  0  0
 44 45  1  0  0  0  0
 44 59  1  1  0  0  0
 45 46  1  0  0  0  0
 45 57  1  0  0  0  0
 45 58  1  0  0  0  0
 46 47  1  0  0  0  0
 46 56  1  0  0  0  0
 47 48  2  0  0  0  0
 47 52  1  0  0  0  0
 48 49  1  0  0  0  0
 48 55  1  0  0  0  0
 49 50  2  0  0  0  0
 49 54  1  0  0  0  0
 50 51  1  0  0  0  0
 51 52  2  0  0  0  0
 51 53  1  0  0  0  0
M  END
>  <MODEL>
       3

$$$$
best_conformers_31.pdb
 OpenBabel02042510453D

 64 70  0  0  1  0  0  0  0  0999 V2000
    8.6180   -2.0690   26.9240 O   0  0  0  0  0  0  0  0  0  0  0  0
    8.2690   -1.5650   25.8650 C   0  0  0  0  0  0  0  0  0  0  0  0
    9.2670   -1.0790   24.8710 C   0  0  0  0  0  0  0  0  0  0  0  0
   10.5830   -0.9400   25.2990 C   0  0  0  0  0  0  0  0  0  0  0  0
   11.5750   -0.6110   24.3930 C   0  0  0  0  0  0  0  0  0  0  0  0
   11.2340   -0.4430   23.0500 C   0  0  0  0  0  0  0  0  0  0  0  0
   12.4950   -0.0670   21.9050 Cl  0  0  0  0  0  0  0  0  0  0  0  0
    9.9250   -0.5720   22.6140 C   0  0  0  0  0  0  0  0  0  0  0  0
    8.9140   -0.8750   23.5350 C   0  0  0  0  0  0  0  0  0  0  0  0
    7.4890   -1.0910   23.0750 C   0  0  1  0  0  0  0  0  0  0  0  0
    6.5520   -0.7950   24.2730 C   0  0  0  0  0  0  0  0  0  0  0  0
    6.9580   -1.4720   25.4940 N   0  0  0  0  0  0  0  0  0  0  0  0
    5.9650   -1.9910   26.4170 C   0  0  0  0  0  0  0  0  0  0  0  0
    5.5250   -0.9790   27.4250 C   0  0  0  0  0  0  0  0  0  0  0  0
    5.8810   -0.8620   28.6570 N   0  0  0  0  0  0  0  0  0  0  0  0
    5.1870    0.2300   29.1690 N   0  0  0  0  0  0  0  0  0  0  0  0
    4.4710    0.6750   28.1970 C   0  0  0  0  0  0  0  0  0  0  0  0
    4.6240   -0.0310   27.0540 O   0  0  0  0  0  0  0  0  0  0  0  0
    3.7980    1.5190   28.1910 H   0  0  0  0  0  0  0  0  0  0  0  0
    6.4300   -2.8180   26.9610 H   0  0  0  0  0  0  0  0  0  0  0  0
    5.0930   -2.3390   25.8520 H   0  0  0  0  0  0  0  0  0  0  0  0
    5.5270   -1.0950   24.0210 H   0  0  0  0  0  0  0  0  0  0  0  0
    6.5580    0.2940   24.4160 H   0  0  0  0  0  0  0  0  0  0  0  0
    7.0900   -0.1110   21.9640 C   0  0  0  0  0  0  0  0  0  0  0  0
    7.2720    1.0930   21.9450 O   0  0  0  0  0  0  0  0  0  0  0  0
    6.4360   -0.8050   20.9750 N   0  0  0  0  0  0  0  0  0  0  0  0
    5.8340   -0.1660   19.8680 C   0  0  0  0  0  0  0  0  0  0  0  0
    6.2640   -0.4640   18.5980 C   0  0  0  0  0  0  0  0  0  0  0  0
    5.7880    0.1120   17.4670 N   0  0  0  0  0  0  0  0  0  0  0  0
    4.8200    0.9880   17.6120 C   0  0  0  0  0  0  0  0  0  0  0  0
    4.2530    1.3570   18.8650 C   0  0  0  0  0  0  0  0  0  0  0  0
    3.1930    2.2990   18.9520 C   0  0  0  0  0  0  0  0  0  0  0  0
    2.6380    2.6130   20.1620 C   0  0  0  0  0  0  0  0  0  0  0  0
    3.1130    1.9970   21.3420 C   0  0  0  0  0  0  0  0  0  0  0  0
    4.1400    1.0900   21.2860 C   0  0  0  0  0  0  0  0  0  0  0  0
    4.7550    0.7600   20.0410 C   0  0  0  0  0  0  0  0  0  0  0  0
    4.4930    0.6300   22.2050 H   0  0  0  0  0  0  0  0  0  0  0  0
    2.6650    2.2490   22.2990 H   0  0  0  0  0  0  0  0  0  0  0  0
    1.8330    3.3420   20.2260 H   0  0  0  0  0  0  0  0  0  0  0  0
    2.8390    2.7640   18.0370 H   0  0  0  0  0  0  0  0  0  0  0  0
    4.4260    1.4480   16.7060 H   0  0  0  0  0  0  0  0  0  0  0  0
    7.0620   -1.1950   18.4570 H   0  0  0  0  0  0  0  0  0  0  0  0
    6.2850   -2.2190   21.2490 C   0  0  0  0  0  0  0  0  0  0  0  0
    7.2760   -2.4840   22.3860 C   0  0  2  0  0  0  0  0  0  0  0  0
    6.8460   -3.6200   23.3160 C   0  0  0  0  0  0  0  0  0  0  0  0
    6.7790   -4.8840   22.6220 N   0  0  0  0  0  0  0  0  0  0  0  0
    6.5720   -6.0570   23.2710 C   0  0  0  0  0  0  0  0  0  0  0  0
    6.0860   -6.1270   24.5920 C   0  0  0  0  0  0  0  0  0  0  0  0
    5.8220   -7.3950   25.0640 C   0  0  0  0  0  0  0  0  0  0  0  0
    6.0980   -8.5140   24.3840 N   0  0  0  0  0  0  0  0  0  0  0  0
    6.6200   -8.3160   23.1800 C   0  0  0  0  0  0  0  0  0  0  0  0
    6.8520   -7.1640   22.5680 N   0  0  0  0  0  0  0  0  0  0  0  0
    6.8620   -9.1980   22.5900 H   0  0  0  0  0  0  0  0  0  0  0  0
    5.3610   -7.5420   26.0370 H   0  0  0  0  0  0  0  0  0  0  0  0
    5.9460   -5.2470   25.2150 H   0  0  0  0  0  0  0  0  0  0  0  0
    7.1820   -4.9830   21.7040 H   0  0  0  0  0  0  0  0  0  0  0  0
    5.8620   -3.4020   23.7460 H   0  0  0  0  0  0  0  0  0  0  0  0
    7.5460   -3.6850   24.1570 H   0  0  0  0  0  0  0  0  0  0  0  0
    8.2440   -2.7640   21.9470 H   0  0  0  0  0  0  0  0  0  0  0  0
    5.2550   -2.4470   21.5540 H   0  0  0  0  0  0  0  0  0  0  0  0
    6.4840   -2.7890   20.3430 H   0  0  0  0  0  0  0  0  0  0  0  0
    9.6900   -0.4400   21.5630 H   0  0  0  0  0  0  0  0  0  0  0  0
   12.6090   -0.5200   24.7060 H   0  0  0  0  0  0  0  0  0  0  0  0
   10.7890   -1.1130   26.3530 H   0  0  0  0  0  0  0  0  0  0  0  0
  1  2  2  0  0  0  0
  2  3  1  0  0  0  0
  2 12  1  0  0  0  0
  3  4  2  0  0  0  0
  3  9  1  0  0  0  0
  4  5  1  0  0  0  0
  4 64  1  0  0  0  0
  5  6  2  0  0  0  0
  5 63  1  0  0  0  0
  6  7  1  0  0  0  0
  6  8  1  0  0  0  0
  8  9  2  0  0  0  0
  8 62  1  0  0  0  0
 10  9  1  1  0  0  0
 10 11  1  0  0  0  0
 10 24  1  0  0  0  0
 10 44  1  0  0  0  0
 11 12  1  0  0  0  0
 11 22  1  0  0  0  0
 11 23  1  0  0  0  0
 12 13  1  0  0  0  0
 13 14  1  0  0  0  0
 13 20  1  0  0  0  0
 13 21  1  0  0  0  0
 14 15  2  0  0  0  0
 14 18  1  0  0  0  0
 15 16  1  0  0  0  0
 16 17  2  0  0  0  0
 17 18  1  0  0  0  0
 17 19  1  0  0  0  0
 24 25  2  0  0  0  0
 24 26  1  0  0  0  0
 26 27  1  0  0  0  0
 26 43  1  0  0  0  0
 27 28  2  0  0  0  0
 27 36  1  0  0  0  0
 28 29  1  0  0  0  0
 28 42  1  0  0  0  0
 29 30  2  0  0  0  0
 30 31  1  0  0  0  0
 30 41  1  0  0  0  0
 31 32  2  0  0  0  0
 31 36  1  0  0  0  0
 32 33  1  0  0  0  0
 32 40  1  0  0  0  0
 33 34  2  0  0  0  0
 33 39  1  0  0  0  0
 34 35  1  0  0  0  0
 34 38  1  0  0  0  0
 35 36  2  0  0  0  0
 35 37  1  0  0  0  0
 43 44  1  0  0  0  0
 43 60  1  0  0  0  0
 43 61  1  0  0  0  0
 44 45  1  0  0  0  0
 44 59  1  6  0  0  0
 45 46  1  0  0  0  0
 45 57  1  0  0  0  0
 45 58  1  0  0  0  0
 46 47  1  0  0  0  0
 46 56  1  0  0  0  0
 47 48  2  0  0  0  0
 47 52  1  0  0  0  0
 48 49  1  0  0  0  0
 48 55  1  0  0  0  0
 49 50  2  0  0  0  0
 49 54  1  0  0  0  0
 50 51  1  0  0  0  0
 51 52  2  0  0  0  0
 51 53  1  0  0  0  0
M  END
>  <MODEL>
       4

$$$$
best_conformers_31.pdb
 OpenBabel02042510453D

 64 70  0  0  1  0  0  0  0  0999 V2000
    8.5850   -2.0540   26.9390 O   0  0  0  0  0  0  0  0  0  0  0  0
    8.2500   -1.5730   25.8660 C   0  0  0  0  0  0  0  0  0  0  0  0
    9.2540   -1.1020   24.8740 C   0  0  0  0  0  0  0  0  0  0  0  0
   10.5710   -0.9740   25.3050 C   0  0  0  0  0  0  0  0  0  0  0  0
   11.5670   -0.6550   24.4010 C   0  0  0  0  0  0  0  0  0  0  0  0
   11.2260   -0.4820   23.0580 C   0  0  0  0  0  0  0  0  0  0  0  0
   12.4890   -0.1190   21.9140 Cl  0  0  0  0  0  0  0  0  0  0  0  0
    9.9180   -0.6010   22.6200 C   0  0  0  0  0  0  0  0  0  0  0  0
    8.9040   -0.9010   23.5370 C   0  0  0  0  0  0  0  0  0  0  0  0
    7.4800   -1.1020   23.0730 C   0  0  1  0  0  0  0  0  0  0  0  0
    6.5460   -0.7980   24.2690 C   0  0  0  0  0  0  0  0  0  0  0  0
    6.9460   -1.4930   25.4790 N   0  0  0  0  0  0  0  0  0  0  0  0
    5.9440   -1.9920   26.3990 C   0  0  0  0  0  0  0  0  0  0  0  0
    5.4710   -0.9400   27.3440 C   0  0  0  0  0  0  0  0  0  0  0  0
    4.5710   -0.0410   27.1270 N   0  0  0  0  0  0  0  0  0  0  0  0
    4.4680    0.6960   28.3030 N   0  0  0  0  0  0  0  0  0  0  0  0
    5.3150    0.1800   29.1190 C   0  0  0  0  0  0  0  0  0  0  0  0
    5.9960   -0.8610   28.5900 O   0  0  0  0  0  0  0  0  0  0  0  0
    5.5320    0.4790   30.1340 H   0  0  0  0  0  0  0  0  0  0  0  0
    5.0810   -2.3400   25.8200 H   0  0  0  0  0  0  0  0  0  0  0  0
    6.3940   -2.8100   26.9640 H   0  0  0  0  0  0  0  0  0  0  0  0
    6.5600    0.2900   24.4220 H   0  0  0  0  0  0  0  0  0  0  0  0
    5.5190   -1.0830   24.0180 H   0  0  0  0  0  0  0  0  0  0  0  0
    7.0890   -0.1190   21.9620 C   0  0  0  0  0  0  0  0  0  0  0  0
    7.2760    1.0820   21.9410 O   0  0  0  0  0  0  0  0  0  0  0  0
    6.4340   -0.8110   20.9740 N   0  0  0  0  0  0  0  0  0  0  0  0
    5.8330   -0.1680   19.8690 C   0  0  0  0  0  0  0  0  0  0  0  0
    6.2660   -0.4660   18.6010 C   0  0  0  0  0  0  0  0  0  0  0  0
    5.7920    0.1110   17.4690 N   0  0  0  0  0  0  0  0  0  0  0  0
    4.8230    0.9860   17.6130 C   0  0  0  0  0  0  0  0  0  0  0  0
    4.2550    1.3550   18.8660 C   0  0  0  0  0  0  0  0  0  0  0  0
    3.1960    2.2980   18.9520 C   0  0  0  0  0  0  0  0  0  0  0  0
    2.6400    2.6130   20.1610 C   0  0  0  0  0  0  0  0  0  0  0  0
    3.1130    1.9970   21.3420 C   0  0  0  0  0  0  0  0  0  0  0  0
    4.1410    1.0900   21.2880 C   0  0  0  0  0  0  0  0  0  0  0  0
    4.7550    0.7580   20.0430 C   0  0  0  0  0  0  0  0  0  0  0  0
    4.4920    0.6320   22.2090 H   0  0  0  0  0  0  0  0  0  0  0  0
    2.6630    2.2510   22.2980 H   0  0  0  0  0  0  0  0  0  0  0  0
    1.8350    3.3410   20.2240 H   0  0  0  0  0  0  0  0  0  0  0  0
    2.8430    2.7620   18.0360 H   0  0  0  0  0  0  0  0  0  0  0  0
    4.4290    1.4460   16.7070 H   0  0  0  0  0  0  0  0  0  0  0  0
    7.0640   -1.1950   18.4620 H   0  0  0  0  0  0  0  0  0  0  0  0
    6.2630   -2.2210   21.2510 C   0  0  0  0  0  0  0  0  0  0  0  0
    7.2540   -2.4920   22.3860 C   0  0  2  0  0  0  0  0  0  0  0  0
    6.8130   -3.6190   23.3180 C   0  0  0  0  0  0  0  0  0  0  0  0
    6.7290   -4.8830   22.6280 N   0  0  0  0  0  0  0  0  0  0  0  0
    6.5360   -6.0530   23.2900 C   0  0  0  0  0  0  0  0  0  0  0  0
    6.0520   -6.1210   24.6110 C   0  0  0  0  0  0  0  0  0  0  0  0
    5.7640   -7.3850   25.0880 C   0  0  0  0  0  0  0  0  0  0  0  0
    6.0390   -8.5090   24.4150 N   0  0  0  0  0  0  0  0  0  0  0  0
    6.5700   -8.3100   23.2140 C   0  0  0  0  0  0  0  0  0  0  0  0
    6.8230   -7.1640   22.6000 N   0  0  0  0  0  0  0  0  0  0  0  0
    6.7850   -9.1910   22.6130 H   0  0  0  0  0  0  0  0  0  0  0  0
    5.2960   -7.5100   26.0620 H   0  0  0  0  0  0  0  0  0  0  0  0
    5.8610   -5.2280   25.1960 H   0  0  0  0  0  0  0  0  0  0  0  0
    7.1510   -4.9870   21.7180 H   0  0  0  0  0  0  0  0  0  0  0  0
    7.5130   -3.6950   24.1560 H   0  0  0  0  0  0  0  0  0  0  0  0
    5.8340   -3.3860   23.7520 H   0  0  0  0  0  0  0  0  0  0  0  0
    8.2180   -2.7820   21.9490 H   0  0  0  0  0  0  0  0  0  0  0  0
    6.4550   -2.7960   20.3470 H   0  0  0  0  0  0  0  0  0  0  0  0
    5.2310   -2.4370   21.5570 H   0  0  0  0  0  0  0  0  0  0  0  0
    9.6830   -0.4660   21.5690 H   0  0  0  0  0  0  0  0  0  0  0  0
   12.6020   -0.5680   24.7130 H   0  0  0  0  0  0  0  0  0  0  0  0
   10.7730   -1.1450   26.3590 H   0  0  0  0  0  0  0  0  0  0  0  0
  1  2  2  0  0  0  0
  2  3  1  0  0  0  0
  2 12  1  0  0  0  0
  3  4  2  0  0  0  0
  3  9  1  0  0  0  0
  4  5  1  0  0  0  0
  4 64  1  0  0  0  0
  5  6  2  0  0  0  0
  5 63  1  0  0  0  0
  6  7  1  0  0  0  0
  6  8  1  0  0  0  0
  8  9  2  0  0  0  0
  8 62  1  0  0  0  0
 10  9  1  1  0  0  0
 10 11  1  0  0  0  0
 10 24  1  0  0  0  0
 10 44  1  0  0  0  0
 11 12  1  0  0  0  0
 11 22  1  0  0  0  0
 11 23  1  0  0  0  0
 12 13  1  0  0  0  0
 13 14  1  0  0  0  0
 13 20  1  0  0  0  0
 13 21  1  0  0  0  0
 14 15  2  0  0  0  0
 14 18  1  0  0  0  0
 15 16  1  0  0  0  0
 16 17  2  0  0  0  0
 17 18  1  0  0  0  0
 17 19  1  0  0  0  0
 24 25  2  0  0  0  0
 24 26  1  0  0  0  0
 26 27  1  0  0  0  0
 26 43  1  0  0  0  0
 27 28  2  0  0  0  0
 27 36  1  0  0  0  0
 28 29  1  0  0  0  0
 28 42  1  0  0  0  0
 29 30  2  0  0  0  0
 30 31  1  0  0  0  0
 30 41  1  0  0  0  0
 31 32  2  0  0  0  0
 31 36  1  0  0  0  0
 32 33  1  0  0  0  0
 32 40  1  0  0  0  0
 33 34  2  0  0  0  0
 33 39  1  0  0  0  0
 34 35  1  0  0  0  0
 34 38  1  0  0  0  0
 35 36  2  0  0  0  0
 35 37  1  0  0  0  0
 43 44  1  0  0  0  0
 43 60  1  0  0  0  0
 43 61  1  0  0  0  0
 44 45  1  0  0  0  0
 44 59  1  6  0  0  0
 45 46  1  0  0  0  0
 45 57  1  0  0  0  0
 45 58  1  0  0  0  0
 46 47  1  0  0  0  0
 46 56  1  0  0  0  0
 47 48  2  0  0  0  0
 47 52  1  0  0  0  0
 48 49  1  0  0  0  0
 48 55  1  0  0  0  0
 49 50  2  0  0  0  0
 49 54  1  0  0  0  0
 50 51  1  0  0  0  0
 51 52  2  0  0  0  0
 51 53  1  0  0  0  0
M  END
>  <MODEL>
       5

$$$$
best_conformers_31.pdb
 OpenBabel02042510453D

 64 70  0  0  1  0  0  0  0  0999 V2000
    3.5450   -3.9040   25.2950 O   0  0  0  0  0  0  0  0  0  0  0  0
    4.4840   -3.3950   24.6990 C   0  0  0  0  0  0  0  0  0  0  0  0
    4.9910   -2.0210   25.0220 C   0  0  0  0  0  0  0  0  0  0  0  0
    4.4190   -1.3610   26.1090 C   0  0  0  0  0  0  0  0  0  0  0  0
    4.7530   -0.0530   26.3950 C   0  0  0  0  0  0  0  0  0  0  0  0
    5.6610    0.5950   25.5630 C   0  0  0  0  0  0  0  0  0  0  0  0
    6.0570    2.2590   25.8880 Cl  0  0  0  0  0  0  0  0  0  0  0  0
    6.2490   -0.0480   24.4860 C   0  0  0  0  0  0  0  0  0  0  0  0
    5.9480   -1.3890   24.2170 C   0  0  0  0  0  0  0  0  0  0  0  0
    6.5440   -2.0960   22.9960 C   0  0  1  0  0  0  0  0  0  0  0  0
    6.4640   -3.6180   23.2740 C   0  0  0  0  0  0  0  0  0  0  0  0
    5.1250   -4.0180   23.6660 N   0  0  0  0  0  0  0  0  0  0  0  0
    4.5880   -5.2600   23.1540 C   0  0  0  0  0  0  0  0  0  0  0  0
    5.0690   -6.4780   23.8970 C   0  0  0  0  0  0  0  0  0  0  0  0
    4.4980   -7.1010   24.8670 N   0  0  0  0  0  0  0  0  0  0  0  0
    5.3620   -8.1270   25.2520 N   0  0  0  0  0  0  0  0  0  0  0  0
    6.3690   -8.0380   24.4590 C   0  0  0  0  0  0  0  0  0  0  0  0
    6.2650   -7.0310   23.5640 O   0  0  0  0  0  0  0  0  0  0  0  0
    7.2560   -8.6560   24.4160 H   0  0  0  0  0  0  0  0  0  0  0  0
    4.8500   -5.3310   22.0920 H   0  0  0  0  0  0  0  0  0  0  0  0
    3.5050   -5.2250   23.2640 H   0  0  0  0  0  0  0  0  0  0  0  0
    7.1760   -3.8710   24.0720 H   0  0  0  0  0  0  0  0  0  0  0  0
    6.7070   -4.1800   22.3740 H   0  0  0  0  0  0  0  0  0  0  0  0
    5.6880   -1.7430   21.7570 C   0  0  0  0  0  0  0  0  0  0  0  0
    4.5650   -2.1300   21.5180 O   0  0  0  0  0  0  0  0  0  0  0  0
    6.4000   -0.8780   20.9560 N   0  0  0  0  0  0  0  0  0  0  0  0
    5.8020   -0.2080   19.8530 C   0  0  0  0  0  0  0  0  0  0  0  0
    6.2540   -0.4580   18.5830 C   0  0  0  0  0  0  0  0  0  0  0  0
    5.7790    0.1340   17.4580 N   0  0  0  0  0  0  0  0  0  0  0  0
    4.8050    1.0020   17.6060 C   0  0  0  0  0  0  0  0  0  0  0  0
    4.2380    1.3640   18.8600 C   0  0  0  0  0  0  0  0  0  0  0  0
    3.1900    2.3230   18.9560 C   0  0  0  0  0  0  0  0  0  0  0  0
    2.6780    2.6700   20.1750 C   0  0  0  0  0  0  0  0  0  0  0  0
    3.1990    2.0840   21.3530 C   0  0  0  0  0  0  0  0  0  0  0  0
    4.2130    1.1610   21.2900 C   0  0  0  0  0  0  0  0  0  0  0  0
    4.7500    0.7550   20.0310 C   0  0  0  0  0  0  0  0  0  0  0  0
    4.6010    0.7230   22.2110 H   0  0  0  0  0  0  0  0  0  0  0  0
    2.7830    2.3690   22.3160 H   0  0  0  0  0  0  0  0  0  0  0  0
    1.8760    3.4020   20.2490 H   0  0  0  0  0  0  0  0  0  0  0  0
    2.8150    2.7770   18.0400 H   0  0  0  0  0  0  0  0  0  0  0  0
    4.4140    1.4620   16.6980 H   0  0  0  0  0  0  0  0  0  0  0  0
    7.0470   -1.1880   18.4260 H   0  0  0  0  0  0  0  0  0  0  0  0
    7.7430   -0.5990   21.4250 C   0  0  0  0  0  0  0  0  0  0  0  0
    7.9680   -1.5690   22.6100 C   0  0  2  0  0  0  0  0  0  0  0  0
    9.0520   -2.6160   22.2320 C   0  0  0  0  0  0  0  0  0  0  0  0
    9.5370   -3.4210   23.3410 N   0  0  0  0  0  0  0  0  0  0  0  0
   10.3020   -2.9560   24.3580 C   0  0  0  0  0  0  0  0  0  0  0  0
   10.5960   -3.7900   25.4640 C   0  0  0  0  0  0  0  0  0  0  0  0
   11.3560   -3.2340   26.4650 C   0  0  0  0  0  0  0  0  0  0  0  0
   11.8240   -1.9740   26.4120 N   0  0  0  0  0  0  0  0  0  0  0  0
   11.5010   -1.2940   25.3220 C   0  0  0  0  0  0  0  0  0  0  0  0
   10.7540   -1.7000   24.2900 N   0  0  0  0  0  0  0  0  0  0  0  0
   11.8830   -0.2730   25.2580 H   0  0  0  0  0  0  0  0  0  0  0  0
   11.6190   -3.7950   27.3650 H   0  0  0  0  0  0  0  0  0  0  0  0
   10.2150   -4.8070   25.5430 H   0  0  0  0  0  0  0  0  0  0  0  0
    9.3530   -4.4090   23.3560 H   0  0  0  0  0  0  0  0  0  0  0  0
    9.9110   -2.0780   21.8000 H   0  0  0  0  0  0  0  0  0  0  0  0
    8.6600   -3.3080   21.4820 H   0  0  0  0  0  0  0  0  0  0  0  0
    8.4020   -1.0470   23.4670 H   0  0  0  0  0  0  0  0  0  0  0  0
    7.8400    0.4500   21.7390 H   0  0  0  0  0  0  0  0  0  0  0  0
    8.4660   -0.7540   20.6150 H   0  0  0  0  0  0  0  0  0  0  0  0
    6.9270    0.5250   23.8610 H   0  0  0  0  0  0  0  0  0  0  0  0
    4.3100    0.4770   27.2300 H   0  0  0  0  0  0  0  0  0  0  0  0
    3.6880   -1.9010   26.7010 H   0  0  0  0  0  0  0  0  0  0  0  0
  1  2  2  0  0  0  0
  2  3  1  0  0  0  0
  2 12  1  0  0  0  0
  3  4  2  0  0  0  0
  3  9  1  0  0  0  0
  4  5  1  0  0  0  0
  4 64  1  0  0  0  0
  5  6  2  0  0  0  0
  5 63  1  0  0  0  0
  6  7  1  0  0  0  0
  6  8  1  0  0  0  0
  8  9  2  0  0  0  0
  8 62  1  0  0  0  0
 10  9  1  1  0  0  0
 10 11  1  0  0  0  0
 10 24  1  0  0  0  0
 10 44  1  0  0  0  0
 11 12  1  0  0  0  0
 11 22  1  0  0  0  0
 11 23  1  0  0  0  0
 12 13  1  0  0  0  0
 13 14  1  0  0  0  0
 13 20  1  0  0  0  0
 13 21  1  0  0  0  0
 14 15  2  0  0  0  0
 14 18  1  0  0  0  0
 15 16  1  0  0  0  0
 16 17  2  0  0  0  0
 17 18  1  0  0  0  0
 17 19  1  0  0  0  0
 24 25  2  0  0  0  0
 24 26  1  0  0  0  0
 26 27  1  0  0  0  0
 26 43  1  0  0  0  0
 27 28  2  0  0  0  0
 27 36  1  0  0  0  0
 28 29  1  0  0  0  0
 28 42  1  0  0  0  0
 29 30  2  0  0  0  0
 30 31  1  0  0  0  0
 30 41  1  0  0  0  0
 31 32  2  0  0  0  0
 31 36  1  0  0  0  0
 32 33  1  0  0  0  0
 32 40  1  0  0  0  0
 33 34  2  0  0  0  0
 33 39  1  0  0  0  0
 34 35  1  0  0  0  0
 34 38  1  0  0  0  0
 35 36  2  0  0  0  0
 35 37  1  0  0  0  0
 43 44  1  0  0  0  0
 43 60  1  0  0  0  0
 43 61  1  0  0  0  0
 44 45  1  0  0  0  0
 44 59  1  1  0  0  0
 45 46  1  0  0  0  0
 45 57  1  0  0  0  0
 45 58  1  0  0  0  0
 46 47  1  0  0  0  0
 46 56  1  0  0  0  0
 47 48  2  0  0  0  0
 47 52  1  0  0  0  0
 48 49  1  0  0  0  0
 48 55  1  0  0  0  0
 49 50  2  0  0  0  0
 49 54  1  0  0  0  0
 50 51  1  0  0  0  0
 51 52  2  0  0  0  0
 51 53  1  0  0  0  0
M  END
>  <MODEL>
       6

$$$$
best_conformers_31.pdb
 OpenBabel02042510453D

 64 70  0  0  1  0  0  0  0  0999 V2000
    3.5510   -3.8910   25.3090 O   0  0  0  0  0  0  0  0  0  0  0  0
    4.4880   -3.3840   24.7090 C   0  0  0  0  0  0  0  0  0  0  0  0
    4.9970   -2.0100   25.0260 C   0  0  0  0  0  0  0  0  0  0  0  0
    4.4290   -1.3490   26.1140 C   0  0  0  0  0  0  0  0  0  0  0  0
    4.7640   -0.0400   26.3950 C   0  0  0  0  0  0  0  0  0  0  0  0
    5.6700    0.6060   25.5580 C   0  0  0  0  0  0  0  0  0  0  0  0
    6.0660    2.2710   25.8780 Cl  0  0  0  0  0  0  0  0  0  0  0  0
    6.2550   -0.0400   24.4810 C   0  0  0  0  0  0  0  0  0  0  0  0
    5.9530   -1.3820   24.2170 C   0  0  0  0  0  0  0  0  0  0  0  0
    6.5450   -2.0940   22.9980 C   0  0  1  0  0  0  0  0  0  0  0  0
    6.4620   -3.6140   23.2790 C   0  0  0  0  0  0  0  0  0  0  0  0
    5.1240   -4.0100   23.6740 N   0  0  0  0  0  0  0  0  0  0  0  0
    4.5830   -5.2500   23.1660 C   0  0  0  0  0  0  0  0  0  0  0  0
    5.0600   -6.4700   23.9080 C   0  0  0  0  0  0  0  0  0  0  0  0
    4.4910   -7.0900   24.8810 N   0  0  0  0  0  0  0  0  0  0  0  0
    5.3490   -8.1210   25.2620 N   0  0  0  0  0  0  0  0  0  0  0  0
    6.3540   -8.0380   24.4650 C   0  0  0  0  0  0  0  0  0  0  0  0
    6.2520   -7.0300   23.5700 O   0  0  0  0  0  0  0  0  0  0  0  0
    7.2360   -8.6610   24.4160 H   0  0  0  0  0  0  0  0  0  0  0  0
    3.5000   -5.2100   23.2790 H   0  0  0  0  0  0  0  0  0  0  0  0
    4.8430   -5.3210   22.1030 H   0  0  0  0  0  0  0  0  0  0  0  0
    6.7010   -4.1780   22.3780 H   0  0  0  0  0  0  0  0  0  0  0  0
    7.1750   -3.8650   24.0740 H   0  0  0  0  0  0  0  0  0  0  0  0
    5.6910   -1.7420   21.7590 C   0  0  0  0  0  0  0  0  0  0  0  0
    4.5680   -2.1280   21.5190 O   0  0  0  0  0  0  0  0  0  0  0  0
    6.4050   -0.8790   20.9570 N   0  0  0  0  0  0  0  0  0  0  0  0
    5.8060   -0.2080   19.8550 C   0  0  0  0  0  0  0  0  0  0  0  0
    6.2550   -0.4580   18.5840 C   0  0  0  0  0  0  0  0  0  0  0  0
    5.7800    0.1330   17.4590 N   0  0  0  0  0  0  0  0  0  0  0  0
    4.8060    1.0010   17.6070 C   0  0  0  0  0  0  0  0  0  0  0  0
    4.2390    1.3630   18.8620 C   0  0  0  0  0  0  0  0  0  0  0  0
    3.1910    2.3220   18.9560 C   0  0  0  0  0  0  0  0  0  0  0  0
    2.6780    2.6700   20.1750 C   0  0  0  0  0  0  0  0  0  0  0  0
    3.1990    2.0850   21.3540 C   0  0  0  0  0  0  0  0  0  0  0  0
    4.2130    1.1610   21.2910 C   0  0  0  0  0  0  0  0  0  0  0  0
    4.7520    0.7550   20.0330 C   0  0  0  0  0  0  0  0  0  0  0  0
    4.6020    0.7250   22.2120 H   0  0  0  0  0  0  0  0  0  0  0  0
    2.7830    2.3690   22.3160 H   0  0  0  0  0  0  0  0  0  0  0  0
    1.8760    3.4020   20.2480 H   0  0  0  0  0  0  0  0  0  0  0  0
    2.8160    2.7760   18.0400 H   0  0  0  0  0  0  0  0  0  0  0  0
    4.4140    1.4610   16.6990 H   0  0  0  0  0  0  0  0  0  0  0  0
    7.0480   -1.1880   18.4260 H   0  0  0  0  0  0  0  0  0  0  0  0
    7.7520   -0.6070   21.4270 C   0  0  0  0  0  0  0  0  0  0  0  0
    7.9730   -1.5720   22.6180 C   0  0  2  0  0  0  0  0  0  0  0  0
    9.0490   -2.6350   22.2570 C   0  0  0  0  0  0  0  0  0  0  0  0
    9.5370   -3.4320   23.3640 N   0  0  0  0  0  0  0  0  0  0  0  0
   10.2760   -2.9680   24.3990 C   0  0  0  0  0  0  0  0  0  0  0  0
   10.8950   -1.7060   24.3780 C   0  0  0  0  0  0  0  0  0  0  0  0
   11.5990   -1.3500   25.5110 C   0  0  0  0  0  0  0  0  0  0  0  0
   11.6910   -2.1410   26.5880 N   0  0  0  0  0  0  0  0  0  0  0  0
   11.0840   -3.3190   26.4860 C   0  0  0  0  0  0  0  0  0  0  0  0
   10.4010   -3.7940   25.4490 N   0  0  0  0  0  0  0  0  0  0  0  0
   11.1570   -3.9680   27.3630 H   0  0  0  0  0  0  0  0  0  0  0  0
   12.1130   -0.3870   25.5730 H   0  0  0  0  0  0  0  0  0  0  0  0
   10.8210   -1.0590   23.5110 H   0  0  0  0  0  0  0  0  0  0  0  0
    9.3500   -4.4210   23.4160 H   0  0  0  0  0  0  0  0  0  0  0  0
    9.9100   -2.1220   21.7940 H   0  0  0  0  0  0  0  0  0  0  0  0
    8.6550   -3.3360   21.5170 H   0  0  0  0  0  0  0  0  0  0  0  0
    8.3780   -1.0380   23.4850 H   0  0  0  0  0  0  0  0  0  0  0  0
    8.4710   -0.7640   20.6130 H   0  0  0  0  0  0  0  0  0  0  0  0
    7.8500    0.4440   21.7350 H   0  0  0  0  0  0  0  0  0  0  0  0
    6.9270    0.5340   23.8510 H   0  0  0  0  0  0  0  0  0  0  0  0
    4.3240    0.4930   27.2300 H   0  0  0  0  0  0  0  0  0  0  0  0
    3.7000   -1.8890   26.7080 H   0  0  0  0  0  0  0  0  0  0  0  0
  1  2  2  0  0  0  0
  2  3  1  0  0  0  0
  2 12  1  0  0  0  0
  3  4  2  0  0  0  0
  3  9  1  0  0  0  0
  4  5  1  0  0  0  0
  4 64  1  0  0  0  0
  5  6  2  0  0  0  0
  5 63  1  0  0  0  0
  6  7  1  0  0  0  0
  6  8  1  0  0  0  0
  8  9  2  0  0  0  0
  8 62  1  0  0  0  0
 10  9  1  1  0  0  0
 10 11  1  0  0  0  0
 10 24  1  0  0  0  0
 10 44  1  0  0  0  0
 11 12  1  0  0  0  0
 11 22  1  0  0  0  0
 11 23  1  0  0  0  0
 12 13  1  0  0  0  0
 13 14  1  0  0  0  0
 13 20  1  0  0  0  0
 13 21  1  0  0  0  0
 14 15  2  0  0  0  0
 14 18  1  0  0  0  0
 15 16  1  0  0  0  0
 16 17  2  0  0  0  0
 17 18  1  0  0  0  0
 17 19  1  0  0  0  0
 24 25  2  0  0  0  0
 24 26  1  0  0  0  0
 26 27  1  0  0  0  0
 26 43  1  0  0  0  0
 27 28  2  0  0  0  0
 27 36  1  0  0  0  0
 28 29  1  0  0  0  0
 28 42  1  0  0  0  0
 29 30  2  0  0  0  0
 30 31  1  0  0  0  0
 30 41  1  0  0  0  0
 31 32  2  0  0  0  0
 31 36  1  0  0  0  0
 32 33  1  0  0  0  0
 32 40  1  0  0  0  0
 33 34  2  0  0  0  0
 33 39  1  0  0  0  0
 34 35  1  0  0  0  0
 34 38  1  0  0  0  0
 35 36  2  0  0  0  0
 35 37  1  0  0  0  0
 43 44  1  0  0  0  0
 43 60  1  0  0  0  0
 43 61  1  0  0  0  0
 44 45  1  0  0  0  0
 44 59  1  1  0  0  0
 45 46  1  0  0  0  0
 45 57  1  0  0  0  0
 45 58  1  0  0  0  0
 46 47  1  0  0  0  0
 46 56  1  0  0  0  0
 47 48  2  0  0  0  0
 47 52  1  0  0  0  0
 48 49  1  0  0  0  0
 48 55  1  0  0  0  0
 49 50  2  0  0  0  0
 49 54  1  0  0  0  0
 50 51  1  0  0  0  0
 51 52  2  0  0  0  0
 51 53  1  0  0  0  0
M  END
>  <MODEL>
       7

$$$$
best_conformers_31.pdb
 OpenBabel02042510453D

 64 70  0  0  1  0  0  0  0  0999 V2000
    3.5720   -3.9380   25.3130 O   0  0  0  0  0  0  0  0  0  0  0  0
    4.4910   -3.4080   24.7070 C   0  0  0  0  0  0  0  0  0  0  0  0
    4.9950   -2.0310   25.0250 C   0  0  0  0  0  0  0  0  0  0  0  0
    4.4280   -1.3710   26.1150 C   0  0  0  0  0  0  0  0  0  0  0  0
    4.7620   -0.0620   26.4000 C   0  0  0  0  0  0  0  0  0  0  0  0
    5.6670    0.5870   25.5650 C   0  0  0  0  0  0  0  0  0  0  0  0
    6.0610    2.2520   25.8900 Cl  0  0  0  0  0  0  0  0  0  0  0  0
    6.2510   -0.0540   24.4860 C   0  0  0  0  0  0  0  0  0  0  0  0
    5.9500   -1.3970   24.2170 C   0  0  0  0  0  0  0  0  0  0  0  0
    6.5440   -2.1010   22.9950 C   0  0  1  0  0  0  0  0  0  0  0  0
    6.4590   -3.6230   23.2650 C   0  0  0  0  0  0  0  0  0  0  0  0
    5.1190   -4.0190   23.6590 N   0  0  0  0  0  0  0  0  0  0  0  0
    4.5810   -5.2600   23.1460 C   0  0  0  0  0  0  0  0  0  0  0  0
    5.1360   -6.4820   23.8250 C   0  0  0  0  0  0  0  0  0  0  0  0
    6.2120   -7.1240   23.5230 N   0  0  0  0  0  0  0  0  0  0  0  0
    6.3410   -8.1480   24.4630 N   0  0  0  0  0  0  0  0  0  0  0  0
    5.3230   -8.0330   25.2390 C   0  0  0  0  0  0  0  0  0  0  0  0
    4.5040   -7.0130   24.9000 O   0  0  0  0  0  0  0  0  0  0  0  0
    5.0560   -8.6300   26.1030 H   0  0  0  0  0  0  0  0  0  0  0  0
    3.4940   -5.2320   23.2440 H   0  0  0  0  0  0  0  0  0  0  0  0
    4.8500   -5.3150   22.0860 H   0  0  0  0  0  0  0  0  0  0  0  0
    7.1720   -3.8810   24.0590 H   0  0  0  0  0  0  0  0  0  0  0  0
    6.7050   -4.1820   22.3620 H   0  0  0  0  0  0  0  0  0  0  0  0
    5.6910   -1.7440   21.7580 C   0  0  0  0  0  0  0  0  0  0  0  0
    4.5670   -2.1290   21.5190 O   0  0  0  0  0  0  0  0  0  0  0  0
    6.4040   -0.8790   20.9580 N   0  0  0  0  0  0  0  0  0  0  0  0
    5.8050   -0.2070   19.8550 C   0  0  0  0  0  0  0  0  0  0  0  0
    6.2540   -0.4570   18.5830 C   0  0  0  0  0  0  0  0  0  0  0  0
    5.7790    0.1330   17.4580 N   0  0  0  0  0  0  0  0  0  0  0  0
    4.8040    1.0020   17.6060 C   0  0  0  0  0  0  0  0  0  0  0  0
    4.2380    1.3640   18.8600 C   0  0  0  0  0  0  0  0  0  0  0  0
    3.1900    2.3230   18.9560 C   0  0  0  0  0  0  0  0  0  0  0  0
    2.6770    2.6690   20.1750 C   0  0  0  0  0  0  0  0  0  0  0  0
    3.1980    2.0830   21.3530 C   0  0  0  0  0  0  0  0  0  0  0  0
    4.2130    1.1600   21.2900 C   0  0  0  0  0  0  0  0  0  0  0  0
    4.7520    0.7550   20.0320 C   0  0  0  0  0  0  0  0  0  0  0  0
    4.6020    0.7230   22.2100 H   0  0  0  0  0  0  0  0  0  0  0  0
    2.7830    2.3680   22.3160 H   0  0  0  0  0  0  0  0  0  0  0  0
    1.8760    3.4010   20.2490 H   0  0  0  0  0  0  0  0  0  0  0  0
    2.8150    2.7770   18.0400 H   0  0  0  0  0  0  0  0  0  0  0  0
    4.4130    1.4630   16.6980 H   0  0  0  0  0  0  0  0  0  0  0  0
    7.0460   -1.1880   18.4260 H   0  0  0  0  0  0  0  0  0  0  0  0
    7.7520   -0.6080   21.4280 C   0  0  0  0  0  0  0  0  0  0  0  0
    7.9730   -1.5780   22.6160 C   0  0  2  0  0  0  0  0  0  0  0  0
    9.0510   -2.6380   22.2520 C   0  0  0  0  0  0  0  0  0  0  0  0
    9.5400   -3.4340   23.3590 N   0  0  0  0  0  0  0  0  0  0  0  0
   10.2810   -2.9710   24.3940 C   0  0  0  0  0  0  0  0  0  0  0  0
   10.8980   -1.7080   24.3730 C   0  0  0  0  0  0  0  0  0  0  0  0
   11.6040   -1.3520   25.5040 C   0  0  0  0  0  0  0  0  0  0  0  0
   11.7020   -2.1440   26.5810 N   0  0  0  0  0  0  0  0  0  0  0  0
   11.0960   -3.3220   26.4790 C   0  0  0  0  0  0  0  0  0  0  0  0
   10.4110   -3.7970   25.4430 N   0  0  0  0  0  0  0  0  0  0  0  0
   11.1750   -3.9710   27.3540 H   0  0  0  0  0  0  0  0  0  0  0  0
   12.1160   -0.3880   25.5660 H   0  0  0  0  0  0  0  0  0  0  0  0
   10.8210   -1.0590   23.5080 H   0  0  0  0  0  0  0  0  0  0  0  0
    9.3580   -4.4240   23.4050 H   0  0  0  0  0  0  0  0  0  0  0  0
    9.9100   -2.1240   21.7880 H   0  0  0  0  0  0  0  0  0  0  0  0
    8.6570   -3.3370   21.5100 H   0  0  0  0  0  0  0  0  0  0  0  0
    8.3790   -1.0450   23.4840 H   0  0  0  0  0  0  0  0  0  0  0  0
    7.8490    0.4410   21.7390 H   0  0  0  0  0  0  0  0  0  0  0  0
    8.4700   -0.7620   20.6130 H   0  0  0  0  0  0  0  0  0  0  0  0
    6.9220    0.5230   23.8570 H   0  0  0  0  0  0  0  0  0  0  0  0
    4.3230    0.4670   27.2380 H   0  0  0  0  0  0  0  0  0  0  0  0
    3.7010   -1.9120   26.7100 H   0  0  0  0  0  0  0  0  0  0  0  0
  1  2  2  0  0  0  0
  2  3  1  0  0  0  0
  2 12  1  0  0  0  0
  3  4  2  0  0  0  0
  3  9  1  0  0  0  0
  4  5  1  0  0  0  0
  4 64  1  0  0  0  0
  5  6  2  0  0  0  0
  5 63  1  0  0  0  0
  6  7  1  0  0  0  0
  6  8  1  0  0  0  0
  8  9  2  0  0  0  0
  8 62  1  0  0  0  0
 10  9  1  1  0  0  0
 10 11  1  0  0  0  0
 10 24  1  0  0  0  0
 10 44  1  0  0  0  0
 11 12  1  0  0  0  0
 11 22  1  0  0  0  0
 11 23  1  0  0  0  0
 12 13  1  0  0  0  0
 13 14  1  0  0  0  0
 13 20  1  0  0  0  0
 13 21  1  0  0  0  0
 14 15  2  0  0  0  0
 14 18  1  0  0  0  0
 15 16  1  0  0  0  0
 16 17  2  0  0  0  0
 17 18  1  0  0  0  0
 17 19  1  0  0  0  0
 24 25  2  0  0  0  0
 24 26  1  0  0  0  0
 26 27  1  0  0  0  0
 26 43  1  0  0  0  0
 27 28  2  0  0  0  0
 27 36  1  0  0  0  0
 28 29  1  0  0  0  0
 28 42  1  0  0  0  0
 29 30  2  0  0  0  0
 30 31  1  0  0  0  0
 30 41  1  0  0  0  0
 31 32  2  0  0  0  0
 31 36  1  0  0  0  0
 32 33  1  0  0  0  0
 32 40  1  0  0  0  0
 33 34  2  0  0  0  0
 33 39  1  0  0  0  0
 34 35  1  0  0  0  0
 34 38  1  0  0  0  0
 35 36  2  0  0  0  0
 35 37  1  0  0  0  0
 43 44  1  0  0  0  0
 43 60  1  0  0  0  0
 43 61  1  0  0  0  0
 44 45  1  0  0  0  0
 44 59  1  1  0  0  0
 45 46  1  0  0  0  0
 45 57  1  0  0  0  0
 45 58  1  0  0  0  0
 46 47  1  0  0  0  0
 46 56  1  0  0  0  0
 47 48  2  0  0  0  0
 47 52  1  0  0  0  0
 48 49  1  0  0  0  0
 48 55  1  0  0  0  0
 49 50  2  0  0  0  0
 49 54  1  0  0  0  0
 50 51  1  0  0  0  0
 51 52  2  0  0  0  0
 51 53  1  0  0  0  0
M  END
>  <MODEL>
       8

$$$$
best_conformers_31.pdb
 OpenBabel02042510453D

 64 70  0  0  1  0  0  0  0  0999 V2000
    8.5970   -2.0740   26.9270 O   0  0  0  0  0  0  0  0  0  0  0  0
    8.2560   -1.5780   25.8640 C   0  0  0  0  0  0  0  0  0  0  0  0
    9.2560   -1.1020   24.8700 C   0  0  0  0  0  0  0  0  0  0  0  0
   10.5710   -0.9720   25.3020 C   0  0  0  0  0  0  0  0  0  0  0  0
   11.5660   -0.6470   24.4000 C   0  0  0  0  0  0  0  0  0  0  0  0
   11.2260   -0.4700   23.0570 C   0  0  0  0  0  0  0  0  0  0  0  0
   12.4900   -0.1080   21.9140 Cl  0  0  0  0  0  0  0  0  0  0  0  0
    9.9180   -0.5920   22.6170 C   0  0  0  0  0  0  0  0  0  0  0  0
    8.9070   -0.8980   23.5340 C   0  0  0  0  0  0  0  0  0  0  0  0
    7.4800   -1.0940   23.0730 C   0  0  1  0  0  0  0  0  0  0  0  0
    6.5460   -0.7890   24.2700 C   0  0  0  0  0  0  0  0  0  0  0  0
    6.9490   -1.4790   25.4820 N   0  0  0  0  0  0  0  0  0  0  0  0
    5.9490   -1.9950   26.3960 C   0  0  0  0  0  0  0  0  0  0  0  0
    5.4680   -0.9330   27.3290 C   0  0  0  0  0  0  0  0  0  0  0  0
    4.5610   -0.0470   27.1060 N   0  0  0  0  0  0  0  0  0  0  0  0
    4.4590    0.7080   28.2710 N   0  0  0  0  0  0  0  0  0  0  0  0
    5.3210    0.2140   29.0870 C   0  0  0  0  0  0  0  0  0  0  0  0
    6.0100   -0.8260   28.5660 O   0  0  0  0  0  0  0  0  0  0  0  0
    5.5370    0.5300   30.0980 H   0  0  0  0  0  0  0  0  0  0  0  0
    5.0930   -2.3690   25.8180 H   0  0  0  0  0  0  0  0  0  0  0  0
    6.4110   -2.8050   26.9620 H   0  0  0  0  0  0  0  0  0  0  0  0
    5.5190   -1.0770   24.0150 H   0  0  0  0  0  0  0  0  0  0  0  0
    6.5520    0.2990   24.4190 H   0  0  0  0  0  0  0  0  0  0  0  0
    7.0870   -0.1180   21.9610 C   0  0  0  0  0  0  0  0  0  0  0  0
    7.2750    1.0820   21.9380 O   0  0  0  0  0  0  0  0  0  0  0  0
    6.4290   -0.8110   20.9750 N   0  0  0  0  0  0  0  0  0  0  0  0
    5.8310   -0.1700   19.8700 C   0  0  0  0  0  0  0  0  0  0  0  0
    6.2670   -0.4660   18.6040 C   0  0  0  0  0  0  0  0  0  0  0  0
    5.7960    0.1090   17.4710 N   0  0  0  0  0  0  0  0  0  0  0  0
    4.8260    0.9840   17.6130 C   0  0  0  0  0  0  0  0  0  0  0  0
    4.2580    1.3530   18.8660 C   0  0  0  0  0  0  0  0  0  0  0  0
    3.2000    2.2960   18.9510 C   0  0  0  0  0  0  0  0  0  0  0  0
    2.6430    2.6110   20.1590 C   0  0  0  0  0  0  0  0  0  0  0  0
    3.1140    1.9970   21.3420 C   0  0  0  0  0  0  0  0  0  0  0  0
    4.1410    1.0900   21.2900 C   0  0  0  0  0  0  0  0  0  0  0  0
    4.7560    0.7570   20.0450 C   0  0  0  0  0  0  0  0  0  0  0  0
    4.4900    0.6340   22.2140 H   0  0  0  0  0  0  0  0  0  0  0  0
    2.6600    2.2510   22.2970 H   0  0  0  0  0  0  0  0  0  0  0  0
    1.8370    3.3380   20.2190 H   0  0  0  0  0  0  0  0  0  0  0  0
    2.8480    2.7590   18.0330 H   0  0  0  0  0  0  0  0  0  0  0  0
    4.4300    1.4440   16.7070 H   0  0  0  0  0  0  0  0  0  0  0  0
    7.0680   -1.1930   18.4710 H   0  0  0  0  0  0  0  0  0  0  0  0
    6.2530   -2.2180   21.2550 C   0  0  0  0  0  0  0  0  0  0  0  0
    7.2480   -2.4850   22.3880 C   0  0  2  0  0  0  0  0  0  0  0  0
    6.8080   -3.6110   23.3240 C   0  0  0  0  0  0  0  0  0  0  0  0
    6.6920   -4.8750   22.6220 N   0  0  0  0  0  0  0  0  0  0  0  0
    6.4350   -6.0290   23.2970 C   0  0  0  0  0  0  0  0  0  0  0  0
    6.6760   -7.2610   22.6720 C   0  0  0  0  0  0  0  0  0  0  0  0
    6.4990   -8.3760   23.4560 C   0  0  0  0  0  0  0  0  0  0  0  0
    6.0380   -8.3480   24.7180 N   0  0  0  0  0  0  0  0  0  0  0  0
    5.7470   -7.1330   25.1620 C   0  0  0  0  0  0  0  0  0  0  0  0
    5.9630   -5.9650   24.5470 N   0  0  0  0  0  0  0  0  0  0  0  0
    5.2920   -7.0640   26.1530 H   0  0  0  0  0  0  0  0  0  0  0  0
    6.6940   -9.3560   23.0420 H   0  0  0  0  0  0  0  0  0  0  0  0
    6.9660   -7.2840   21.6280 H   0  0  0  0  0  0  0  0  0  0  0  0
    7.1770   -4.9560   21.7410 H   0  0  0  0  0  0  0  0  0  0  0  0
    5.8380   -3.3910   23.7780 H   0  0  0  0  0  0  0  0  0  0  0  0
    7.5210   -3.6940   24.1530 H   0  0  0  0  0  0  0  0  0  0  0  0
    8.2110   -2.7770   21.9440 H   0  0  0  0  0  0  0  0  0  0  0  0
    6.4420   -2.7950   20.3500 H   0  0  0  0  0  0  0  0  0  0  0  0
    5.2200   -2.4270   21.5670 H   0  0  0  0  0  0  0  0  0  0  0  0
    9.6830   -0.4570   21.5660 H   0  0  0  0  0  0  0  0  0  0  0  0
   12.5990   -0.5580   24.7160 H   0  0  0  0  0  0  0  0  0  0  0  0
   10.7700   -1.1420   26.3570 H   0  0  0  0  0  0  0  0  0  0  0  0
  1  2  2  0  0  0  0
  2  3  1  0  0  0  0
  2 12  1  0  0  0  0
  3  4  2  0  0  0  0
  3  9  1  0  0  0  0
  4  5  1  0  0  0  0
  4 64  1  0  0  0  0
  5  6  2  0  0  0  0
  5 63  1  0  0  0  0
  6  7  1  0  0  0  0
  6  8  1  0  0  0  0
  8  9  2  0  0  0  0
  8 62  1  0  0  0  0
 10  9  1  1  0  0  0
 10 11  1  0  0  0  0
 10 24  1  0  0  0  0
 10 44  1  0  0  0  0
 11 12  1  0  0  0  0
 11 22  1  0  0  0  0
 11 23  1  0  0  0  0
 12 13  1  0  0  0  0
 13 14  1  0  0  0  0
 13 20  1  0  0  0  0
 13 21  1  0  0  0  0
 14 15  2  0  0  0  0
 14 18  1  0  0  0  0
 15 16  1  0  0  0  0
 16 17  2  0  0  0  0
 17 18  1  0  0  0  0
 17 19  1  0  0  0  0
 24 25  2  0  0  0  0
 24 26  1  0  0  0  0
 26 27  1  0  0  0  0
 26 43  1  0  0  0  0
 27 28  2  0  0  0  0
 27 36  1  0  0  0  0
 28 29  1  0  0  0  0
 28 42  1  0  0  0  0
 29 30  2  0  0  0  0
 30 31  1  0  0  0  0
 30 41  1  0  0  0  0
 31 32  2  0  0  0  0
 31 36  1  0  0  0  0
 32 33  1  0  0  0  0
 32 40  1  0  0  0  0
 33 34  2  0  0  0  0
 33 39  1  0  0  0  0
 34 35  1  0  0  0  0
 34 38  1  0  0  0  0
 35 36  2  0  0  0  0
 35 37  1  0  0  0  0
 43 44  1  0  0  0  0
 43 60  1  0  0  0  0
 43 61  1  0  0  0  0
 44 45  1  0  0  0  0
 44 59  1  6  0  0  0
 45 46  1  0  0  0  0
 45 57  1  0  0  0  0
 45 58  1  0  0  0  0
 46 47  1  0  0  0  0
 46 56  1  0  0  0  0
 47 48  2  0  0  0  0
 47 52  1  0  0  0  0
 48 49  1  0  0  0  0
 48 55  1  0  0  0  0
 49 50  2  0  0  0  0
 49 54  1  0  0  0  0
 50 51  1  0  0  0  0
 51 52  2  0  0  0  0
 51 53  1  0  0  0  0
M  END
>  <MODEL>
       9

$$$$
