best_conformers_61.pdb
 OpenBabel02042510453D

 64 70  0  0  1  0  0  0  0  0999 V2000
    3.6540   -3.9960   25.3490 O   0  0  0  0  0  0  0  0  0  0  0  0
    4.5490   -3.4450   24.7230 C   0  0  0  0  0  0  0  0  0  0  0  0
    5.0450   -2.0690   25.0480 C   0  0  0  0  0  0  0  0  0  0  0  0
    4.4970   -1.4170   26.1530 C   0  0  0  0  0  0  0  0  0  0  0  0
    4.8260   -0.1060   26.4330 C   0  0  0  0  0  0  0  0  0  0  0  0
    5.7040    0.5570   25.5790 C   0  0  0  0  0  0  0  0  0  0  0  0
    6.0870    2.2270   25.8960 Cl  0  0  0  0  0  0  0  0  0  0  0  0
    6.2690   -0.0770   24.4870 C   0  0  0  0  0  0  0  0  0  0  0  0
    5.9770   -1.4210   24.2230 C   0  0  0  0  0  0  0  0  0  0  0  0
    6.5590   -2.1120   22.9880 C   0  0  1  0  0  0  0  0  0  0  0  0
    6.4800   -3.6370   23.2250 C   0  0  0  0  0  0  0  0  0  0  0  0
    5.1500   -4.0310   23.6460 N   0  0  0  0  0  0  0  0  0  0  0  0
    4.5870   -5.2590   23.1150 C   0  0  0  0  0  0  0  0  0  0  0  0
    5.1260   -6.5150   23.7750 C   0  0  0  0  0  0  0  0  0  0  0  0
    6.3170   -7.0970   23.3920 C   0  0  0  0  0  0  0  0  0  0  0  0
    6.7430   -8.2100   24.1130 C   0  0  0  0  0  0  0  0  0  0  0  0
    6.0700   -8.7390   25.1260 N   0  0  0  0  0  0  0  0  0  0  0  0
    4.9110   -8.2090   25.4860 N   0  0  0  0  0  0  0  0  0  0  0  0
    4.4570   -7.1430   24.8360 C   0  0  0  0  0  0  0  0  0  0  0  0
    3.5040   -6.7630   25.2010 H   0  0  0  0  0  0  0  0  0  0  0  0
    7.6830   -8.7060   23.8810 H   0  0  0  0  0  0  0  0  0  0  0  0
    6.9090   -6.7040   22.5640 H   0  0  0  0  0  0  0  0  0  0  0  0
    4.8130   -5.2730   22.0400 H   0  0  0  0  0  0  0  0  0  0  0  0
    3.5020   -5.2060   23.2390 H   0  0  0  0  0  0  0  0  0  0  0  0
    6.7060   -4.1650   22.2950 H   0  0  0  0  0  0  0  0  0  0  0  0
    7.2150   -3.9260   23.9930 H   0  0  0  0  0  0  0  0  0  0  0  0
    5.6890   -1.7370   21.7650 C   0  0  0  0  0  0  0  0  0  0  0  0
    4.5620   -2.1180   21.5350 O   0  0  0  0  0  0  0  0  0  0  0  0
    6.3990   -0.8700   20.9650 N   0  0  0  0  0  0  0  0  0  0  0  0
    5.8050   -0.2060   19.8570 C   0  0  0  0  0  0  0  0  0  0  0  0
    6.2540   -0.4580   18.5860 C   0  0  0  0  0  0  0  0  0  0  0  0
    5.7780    0.1320   17.4600 N   0  0  0  0  0  0  0  0  0  0  0  0
    4.8050    1.0010   17.6070 C   0  0  0  0  0  0  0  0  0  0  0  0
    4.2380    1.3640   18.8600 C   0  0  0  0  0  0  0  0  0  0  0  0
    3.1910    2.3230   18.9560 C   0  0  0  0  0  0  0  0  0  0  0  0
    2.6780    2.6700   20.1740 C   0  0  0  0  0  0  0  0  0  0  0  0
    3.2000    2.0850   21.3540 C   0  0  0  0  0  0  0  0  0  0  0  0
    4.2140    1.1620   21.2890 C   0  0  0  0  0  0  0  0  0  0  0  0
    4.7510    0.7560   20.0320 C   0  0  0  0  0  0  0  0  0  0  0  0
    4.6040    0.7260   22.2100 H   0  0  0  0  0  0  0  0  0  0  0  0
    2.7860    2.3700   22.3160 H   0  0  0  0  0  0  0  0  0  0  0  0
    1.8770    3.4020   20.2480 H   0  0  0  0  0  0  0  0  0  0  0  0
    2.8150    2.7770   18.0400 H   0  0  0  0  0  0  0  0  0  0  0  0
    4.4140    1.4620   16.6990 H   0  0  0  0  0  0  0  0  0  0  0  0
    7.0460   -1.1890   18.4280 H   0  0  0  0  0  0  0  0  0  0  0  0
    7.7590   -0.6210   21.4080 C   0  0  0  0  0  0  0  0  0  0  0  0
    7.9810   -1.5920   22.5930 C   0  0  2  0  0  0  0  0  0  0  0  0
    9.0400   -2.6650   22.2270 C   0  0  0  0  0  0  0  0  0  0  0  0
   10.3370   -2.0800   21.9270 N   0  0  0  0  0  0  0  0  0  0  0  0
   11.1690   -1.6280   22.8970 C   0  0  0  0  0  0  0  0  0  0  0  0
   10.9080   -1.6830   24.1740 N   0  0  0  0  0  0  0  0  0  0  0  0
   11.9060   -1.1370   24.9380 N   0  0  0  0  0  0  0  0  0  0  0  0
   12.8880   -0.6890   24.2380 C   0  0  0  0  0  0  0  0  0  0  0  0
   12.7100   -0.8810   22.5210 S   0  0  0  0  0  0  0  0  0  0  0  0
   13.7580   -0.2300   24.6870 H   0  0  0  0  0  0  0  0  0  0  0  0
   10.6670   -2.0830   20.9740 H   0  0  0  0  0  0  0  0  0  0  0  0
    8.7320   -3.2120   21.3320 H   0  0  0  0  0  0  0  0  0  0  0  0
    9.1540   -3.3770   23.0550 H   0  0  0  0  0  0  0  0  0  0  0  0
    8.4340   -1.0780   23.4480 H   0  0  0  0  0  0  0  0  0  0  0  0
    7.8890    0.4280   21.7100 H   0  0  0  0  0  0  0  0  0  0  0  0
    8.4590   -0.8010   20.5830 H   0  0  0  0  0  0  0  0  0  0  0  0
    6.9200    0.5060   23.8420 H   0  0  0  0  0  0  0  0  0  0  0  0
    4.4010    0.4170   27.2820 H   0  0  0  0  0  0  0  0  0  0  0  0
    3.7890   -1.9650   26.7650 H   0  0  0  0  0  0  0  0  0  0  0  0
  1  2  2  0  0  0  0
  2  3  1  0  0  0  0
  2 12  1  0  0  0  0
  3  4  2  0  0  0  0
  3  9  1  0  0  0  0
  4  5  1  0  0  0  0
  4 64  1  0  0  0  0
  5  6  2  0  0  0  0
  5 63  1  0  0  0  0
  6  7  1  0  0  0  0
  6  8  1  0  0  0  0
  8  9  2  0  0  0  0
  8 62  1  0  0  0  0
 10  9  1  1  0  0  0
 10 11  1  0  0  0  0
 10 27  1  0  0  0  0
 10 47  1  0  0  0  0
 11 12  1  0  0  0  0
 11 25  1  0  0  0  0
 11 26  1  0  0  0  0
 12 13  1  0  0  0  0
 13 14  1  0  0  0  0
 13 23  1  0  0  0  0
 13 24  1  0  0  0  0
 14 15  2  0  0  0  0
 14 19  1  0  0  0  0
 15 16  1  0  0  0  0
 15 22  1  0  0  0  0
 16 17  2  0  0  0  0
 16 21  1  0  0  0  0
 17 18  1  0  0  0  0
 18 19  2  0  0  0  0
 19 20  1  0  0  0  0
 27 28  2  0  0  0  0
 27 29  1  0  0  0  0
 29 30  1  0  0  0  0
 29 46  1  0  0  0  0
 30 31  2  0  0  0  0
 30 39  1  0  0  0  0
 31 32  1  0  0  0  0
 31 45  1  0  0  0  0
 32 33  2  0  0  0  0
 33 34  1  0  0  0  0
 33 44  1  0  0  0  0
 34 35  2  0  0  0  0
 34 39  1  0  0  0  0
 35 36  1  0  0  0  0
 35 43  1  0  0  0  0
 36 37  2  0  0  0  0
 36 42  1  0  0  0  0
 37 38  1  0  0  0  0
 37 41  1  0  0  0  0
 38 39  2  0  0  0  0
 38 40  1  0  0  0  0
 46 47  1  0  0  0  0
 46 60  1  0  0  0  0
 46 61  1  0  0  0  0
 47 48  1  0  0  0  0
 47 59  1  1  0  0  0
 48 49  1  0  0  0  0
 48 57  1  0  0  0  0
 48 58  1  0  0  0  0
 49 50  1  0  0  0  0
 49 56  1  0  0  0  0
 50 51  2  0  0  0  0
 50 54  1  0  0  0  0
 51 52  1  0  0  0  0
 52 53  2  0  0  0  0
 53 54  1  0  0  0  0
 53 55  1  0  0  0  0
M  END
>  <MODEL>
       1

$$$$
best_conformers_61.pdb
 OpenBabel02042510453D

 64 70  0  0  1  0  0  0  0  0999 V2000
    3.6340   -3.9910   25.3350 O   0  0  0  0  0  0  0  0  0  0  0  0
    4.5380   -3.4490   24.7140 C   0  0  0  0  0  0  0  0  0  0  0  0
    5.0360   -2.0760   25.0430 C   0  0  0  0  0  0  0  0  0  0  0  0
    4.4850   -1.4260   26.1480 C   0  0  0  0  0  0  0  0  0  0  0  0
    4.8130   -0.1160   26.4310 C   0  0  0  0  0  0  0  0  0  0  0  0
    5.6930    0.5480   25.5800 C   0  0  0  0  0  0  0  0  0  0  0  0
    6.0750    2.2170   25.9000 Cl  0  0  0  0  0  0  0  0  0  0  0  0
    6.2610   -0.0840   24.4870 C   0  0  0  0  0  0  0  0  0  0  0  0
    5.9700   -1.4280   24.2210 C   0  0  0  0  0  0  0  0  0  0  0  0
    6.5540   -2.1190   22.9860 C   0  0  1  0  0  0  0  0  0  0  0  0
    6.4740   -3.6450   23.2230 C   0  0  0  0  0  0  0  0  0  0  0  0
    5.1440   -4.0390   23.6400 N   0  0  0  0  0  0  0  0  0  0  0  0
    4.5760   -5.2620   23.1020 C   0  0  0  0  0  0  0  0  0  0  0  0
    5.0660   -6.5220   23.7920 C   0  0  0  0  0  0  0  0  0  0  0  0
    4.3710   -7.1020   24.8330 C   0  0  0  0  0  0  0  0  0  0  0  0
    4.9440   -8.2180   25.4400 C   0  0  0  0  0  0  0  0  0  0  0  0
    6.1000   -8.7490   25.0680 N   0  0  0  0  0  0  0  0  0  0  0  0
    6.7640   -8.2190   24.0510 N   0  0  0  0  0  0  0  0  0  0  0  0
    6.2680   -7.1530   23.4360 C   0  0  0  0  0  0  0  0  0  0  0  0
    6.8820   -6.7940   22.6100 H   0  0  0  0  0  0  0  0  0  0  0  0
    4.4680   -8.7190   26.2800 H   0  0  0  0  0  0  0  0  0  0  0  0
    3.4260   -6.6880   25.1860 H   0  0  0  0  0  0  0  0  0  0  0  0
    3.4900   -5.1900   23.2040 H   0  0  0  0  0  0  0  0  0  0  0  0
    4.8210   -5.2870   22.0300 H   0  0  0  0  0  0  0  0  0  0  0  0
    7.2070   -3.9340   23.9930 H   0  0  0  0  0  0  0  0  0  0  0  0
    6.6990   -4.1790   22.2960 H   0  0  0  0  0  0  0  0  0  0  0  0
    5.6860   -1.7420   21.7620 C   0  0  0  0  0  0  0  0  0  0  0  0
    4.5590   -2.1210   21.5310 O   0  0  0  0  0  0  0  0  0  0  0  0
    6.3970   -0.8720   20.9650 N   0  0  0  0  0  0  0  0  0  0  0  0
    5.8050   -0.2060   19.8570 C   0  0  0  0  0  0  0  0  0  0  0  0
    6.2540   -0.4590   18.5860 C   0  0  0  0  0  0  0  0  0  0  0  0
    5.7780    0.1320   17.4600 N   0  0  0  0  0  0  0  0  0  0  0  0
    4.8050    1.0010   17.6070 C   0  0  0  0  0  0  0  0  0  0  0  0
    4.2380    1.3640   18.8600 C   0  0  0  0  0  0  0  0  0  0  0  0
    3.1910    2.3230   18.9560 C   0  0  0  0  0  0  0  0  0  0  0  0
    2.6780    2.6700   20.1740 C   0  0  0  0  0  0  0  0  0  0  0  0
    3.2000    2.0840   21.3530 C   0  0  0  0  0  0  0  0  0  0  0  0
    4.2130    1.1620   21.2890 C   0  0  0  0  0  0  0  0  0  0  0  0
    4.7510    0.7560   20.0320 C   0  0  0  0  0  0  0  0  0  0  0  0
    4.6030    0.7260   22.2100 H   0  0  0  0  0  0  0  0  0  0  0  0
    2.7850    2.3690   22.3160 H   0  0  0  0  0  0  0  0  0  0  0  0
    1.8770    3.4020   20.2490 H   0  0  0  0  0  0  0  0  0  0  0  0
    2.8150    2.7770   18.0400 H   0  0  0  0  0  0  0  0  0  0  0  0
    4.4140    1.4620   16.6990 H   0  0  0  0  0  0  0  0  0  0  0  0
    7.0460   -1.1890   18.4280 H   0  0  0  0  0  0  0  0  0  0  0  0
    7.7560   -0.6250   21.4100 C   0  0  0  0  0  0  0  0  0  0  0  0
    7.9760   -1.5970   22.5940 C   0  0  2  0  0  0  0  0  0  0  0  0
    9.0360   -2.6690   22.2290 C   0  0  0  0  0  0  0  0  0  0  0  0
   10.3340   -2.0840   21.9320 N   0  0  0  0  0  0  0  0  0  0  0  0
   11.1630   -1.6310   22.9040 C   0  0  0  0  0  0  0  0  0  0  0  0
   10.9000   -1.6870   24.1800 N   0  0  0  0  0  0  0  0  0  0  0  0
   11.8970   -1.1400   24.9460 N   0  0  0  0  0  0  0  0  0  0  0  0
   12.8790   -0.6920   24.2470 C   0  0  0  0  0  0  0  0  0  0  0  0
   12.7040   -0.8830   22.5310 S   0  0  0  0  0  0  0  0  0  0  0  0
   13.7480   -0.2320   24.6980 H   0  0  0  0  0  0  0  0  0  0  0  0
   10.6650   -2.0860   20.9790 H   0  0  0  0  0  0  0  0  0  0  0  0
    8.7290   -3.2160   21.3340 H   0  0  0  0  0  0  0  0  0  0  0  0
    9.1490   -3.3820   23.0570 H   0  0  0  0  0  0  0  0  0  0  0  0
    8.4270   -1.0840   23.4520 H   0  0  0  0  0  0  0  0  0  0  0  0
    8.4570   -0.8040   20.5870 H   0  0  0  0  0  0  0  0  0  0  0  0
    7.8860    0.4250   21.7140 H   0  0  0  0  0  0  0  0  0  0  0  0
    6.9130    0.5000   23.8450 H   0  0  0  0  0  0  0  0  0  0  0  0
    4.3870    0.4060   27.2800 H   0  0  0  0  0  0  0  0  0  0  0  0
    3.7750   -1.9750   26.7570 H   0  0  0  0  0  0  0  0  0  0  0  0
  1  2  2  0  0  0  0
  2  3  1  0  0  0  0
  2 12  1  0  0  0  0
  3  4  2  0  0  0  0
  3  9  1  0  0  0  0
  4  5  1  0  0  0  0
  4 64  1  0  0  0  0
  5  6  2  0  0  0  0
  5 63  1  0  0  0  0
  6  7  1  0  0  0  0
  6  8  1  0  0  0  0
  8  9  2  0  0  0  0
  8 62  1  0  0  0  0
 10  9  1  1  0  0  0
 10 11  1  0  0  0  0
 10 27  1  0  0  0  0
 10 47  1  0  0  0  0
 11 12  1  0  0  0  0
 11 25  1  0  0  0  0
 11 26  1  0  0  0  0
 12 13  1  0  0  0  0
 13 14  1  0  0  0  0
 13 23  1  0  0  0  0
 13 24  1  0  0  0  0
 14 15  2  0  0  0  0
 14 19  1  0  0  0  0
 15 16  1  0  0  0  0
 15 22  1  0  0  0  0
 16 17  2  0  0  0  0
 16 21  1  0  0  0  0
 17 18  1  0  0  0  0
 18 19  2  0  0  0  0
 19 20  1  0  0  0  0
 27 28  2  0  0  0  0
 27 29  1  0  0  0  0
 29 30  1  0  0  0  0
 29 46  1  0  0  0  0
 30 31  2  0  0  0  0
 30 39  1  0  0  0  0
 31 32  1  0  0  0  0
 31 45  1  0  0  0  0
 32 33  2  0  0  0  0
 33 34  1  0  0  0  0
 33 44  1  0  0  0  0
 34 35  2  0  0  0  0
 34 39  1  0  0  0  0
 35 36  1  0  0  0  0
 35 43  1  0  0  0  0
 36 37  2  0  0  0  0
 36 42  1  0  0  0  0
 37 38  1  0  0  0  0
 37 41  1  0  0  0  0
 38 39  2  0  0  0  0
 38 40  1  0  0  0  0
 46 47  1  0  0  0  0
 46 60  1  0  0  0  0
 46 61  1  0  0  0  0
 47 48  1  0  0  0  0
 47 59  1  1  0  0  0
 48 49  1  0  0  0  0
 48 57  1  0  0  0  0
 48 58  1  0  0  0  0
 49 50  1  0  0  0  0
 49 56  1  0  0  0  0
 50 51  2  0  0  0  0
 50 54  1  0  0  0  0
 51 52  1  0  0  0  0
 52 53  2  0  0  0  0
 53 54  1  0  0  0  0
 53 55  1  0  0  0  0
M  END
>  <MODEL>
       2

$$$$
best_conformers_61.pdb
 OpenBabel02042510453D

 64 70  0  0  1  0  0  0  0  0999 V2000
    3.6460   -3.9920   25.3460 O   0  0  0  0  0  0  0  0  0  0  0  0
    4.5450   -3.4440   24.7200 C   0  0  0  0  0  0  0  0  0  0  0  0
    5.0420   -2.0690   25.0460 C   0  0  0  0  0  0  0  0  0  0  0  0
    4.4960   -1.4170   26.1520 C   0  0  0  0  0  0  0  0  0  0  0  0
    4.8280   -0.1070   26.4340 C   0  0  0  0  0  0  0  0  0  0  0  0
    5.7060    0.5550   25.5810 C   0  0  0  0  0  0  0  0  0  0  0  0
    6.0940    2.2230   25.9000 Cl  0  0  0  0  0  0  0  0  0  0  0  0
    6.2700   -0.0790   24.4870 C   0  0  0  0  0  0  0  0  0  0  0  0
    5.9760   -1.4230   24.2220 C   0  0  0  0  0  0  0  0  0  0  0  0
    6.5550   -2.1150   22.9850 C   0  0  1  0  0  0  0  0  0  0  0  0
    6.4760   -3.6390   23.2230 C   0  0  0  0  0  0  0  0  0  0  0  0
    5.1450   -4.0330   23.6440 N   0  0  0  0  0  0  0  0  0  0  0  0
    4.5810   -5.2600   23.1130 C   0  0  0  0  0  0  0  0  0  0  0  0
    5.1170   -6.5160   23.7780 C   0  0  0  0  0  0  0  0  0  0  0  0
    6.3090   -7.0970   23.4010 C   0  0  0  0  0  0  0  0  0  0  0  0
    6.7340   -8.2090   24.1250 C   0  0  0  0  0  0  0  0  0  0  0  0
    6.0550   -8.7370   25.1360 N   0  0  0  0  0  0  0  0  0  0  0  0
    4.8940   -8.2060   25.4900 N   0  0  0  0  0  0  0  0  0  0  0  0
    4.4430   -7.1410   24.8370 C   0  0  0  0  0  0  0  0  0  0  0  0
    3.4880   -6.7600   25.1970 H   0  0  0  0  0  0  0  0  0  0  0  0
    7.6750   -8.7050   23.8960 H   0  0  0  0  0  0  0  0  0  0  0  0
    6.9050   -6.7050   22.5750 H   0  0  0  0  0  0  0  0  0  0  0  0
    4.8090   -5.2770   22.0390 H   0  0  0  0  0  0  0  0  0  0  0  0
    3.4950   -5.2050   23.2350 H   0  0  0  0  0  0  0  0  0  0  0  0
    6.7040   -4.1680   22.2940 H   0  0  0  0  0  0  0  0  0  0  0  0
    7.2090   -3.9270   23.9940 H   0  0  0  0  0  0  0  0  0  0  0  0
    5.6880   -1.7370   21.7640 C   0  0  0  0  0  0  0  0  0  0  0  0
    4.5590   -2.1150   21.5360 O   0  0  0  0  0  0  0  0  0  0  0  0
    6.3980   -0.8690   20.9640 N   0  0  0  0  0  0  0  0  0  0  0  0
    5.8050   -0.2050   19.8560 C   0  0  0  0  0  0  0  0  0  0  0  0
    6.2540   -0.4580   18.5860 C   0  0  0  0  0  0  0  0  0  0  0  0
    5.7780    0.1310   17.4590 N   0  0  0  0  0  0  0  0  0  0  0  0
    4.8050    1.0010   17.6070 C   0  0  0  0  0  0  0  0  0  0  0  0
    4.2380    1.3640   18.8600 C   0  0  0  0  0  0  0  0  0  0  0  0
    3.1910    2.3230   18.9560 C   0  0  0  0  0  0  0  0  0  0  0  0
    2.6790    2.6700   20.1740 C   0  0  0  0  0  0  0  0  0  0  0  0
    3.2000    2.0850   21.3530 C   0  0  0  0  0  0  0  0  0  0  0  0
    4.2140    1.1620   21.2890 C   0  0  0  0  0  0  0  0  0  0  0  0
    4.7510    0.7560   20.0320 C   0  0  0  0  0  0  0  0  0  0  0  0
    4.6040    0.7260   22.2100 H   0  0  0  0  0  0  0  0  0  0  0  0
    2.7860    2.3700   22.3160 H   0  0  0  0  0  0  0  0  0  0  0  0
    1.8770    3.4020   20.2490 H   0  0  0  0  0  0  0  0  0  0  0  0
    2.8150    2.7770   18.0400 H   0  0  0  0  0  0  0  0  0  0  0  0
    4.4140    1.4620   16.6990 H   0  0  0  0  0  0  0  0  0  0  0  0
    7.0450   -1.1890   18.4270 H   0  0  0  0  0  0  0  0  0  0  0  0
    7.7590   -0.6260   21.4030 C   0  0  0  0  0  0  0  0  0  0  0  0
    7.9770   -1.5980   22.5890 C   0  0  2  0  0  0  0  0  0  0  0  0
    9.0350   -2.6740   22.2280 C   0  0  0  0  0  0  0  0  0  0  0  0
   10.3360   -2.0960   21.9630 N   0  0  0  0  0  0  0  0  0  0  0  0
   11.2190   -1.6780   22.9010 C   0  0  0  0  0  0  0  0  0  0  0  0
   12.3550   -1.1020   22.6080 N   0  0  0  0  0  0  0  0  0  0  0  0
   13.0640   -0.7510   23.7250 N   0  0  0  0  0  0  0  0  0  0  0  0
   12.4680   -1.0720   24.8190 C   0  0  0  0  0  0  0  0  0  0  0  0
   10.9360   -1.8630   24.6120 S   0  0  0  0  0  0  0  0  0  0  0  0
   12.8720   -0.8740   25.8010 H   0  0  0  0  0  0  0  0  0  0  0  0
   10.6820   -2.0220   21.0180 H   0  0  0  0  0  0  0  0  0  0  0  0
    8.7440   -3.1970   21.3130 H   0  0  0  0  0  0  0  0  0  0  0  0
    9.1250   -3.4150   23.0330 H   0  0  0  0  0  0  0  0  0  0  0  0
    8.4100   -1.0690   23.4440 H   0  0  0  0  0  0  0  0  0  0  0  0
    7.8950    0.4220   21.7100 H   0  0  0  0  0  0  0  0  0  0  0  0
    8.4570   -0.8060   20.5770 H   0  0  0  0  0  0  0  0  0  0  0  0
    6.9230    0.5040   23.8430 H   0  0  0  0  0  0  0  0  0  0  0  0
    4.4040    0.4160   27.2840 H   0  0  0  0  0  0  0  0  0  0  0  0
    3.7860   -1.9630   26.7640 H   0  0  0  0  0  0  0  0  0  0  0  0
  1  2  2  0  0  0  0
  2  3  1  0  0  0  0
  2 12  1  0  0  0  0
  3  4  2  0  0  0  0
  3  9  1  0  0  0  0
  4  5  1  0  0  0  0
  4 64  1  0  0  0  0
  5  6  2  0  0  0  0
  5 63  1  0  0  0  0
  6  7  1  0  0  0  0
  6  8  1  0  0  0  0
  8  9  2  0  0  0  0
  8 62  1  0  0  0  0
 10  9  1  1  0  0  0
 10 11  1  0  0  0  0
 10 27  1  0  0  0  0
 10 47  1  0  0  0  0
 11 12  1  0  0  0  0
 11 25  1  0  0  0  0
 11 26  1  0  0  0  0
 12 13  1  0  0  0  0
 13 14  1  0  0  0  0
 13 23  1  0  0  0  0
 13 24  1  0  0  0  0
 14 15  2  0  0  0  0
 14 19  1  0  0  0  0
 15 16  1  0  0  0  0
 15 22  1  0  0  0  0
 16 17  2  0  0  0  0
 16 21  1  0  0  0  0
 17 18  1  0  0  0  0
 18 19  2  0  0  0  0
 19 20  1  0  0  0  0
 27 28  2  0  0  0  0
 27 29  1  0  0  0  0
 29 30  1  0  0  0  0
 29 46  1  0  0  0  0
 30 31  2  0  0  0  0
 30 39  1  0  0  0  0
 31 32  1  0  0  0  0
 31 45  1  0  0  0  0
 32 33  2  0  0  0  0
 33 34  1  0  0  0  0
 33 44  1  0  0  0  0
 34 35  2  0  0  0  0
 34 39  1  0  0  0  0
 35 36  1  0  0  0  0
 35 43  1  0  0  0  0
 36 37  2  0  0  0  0
 36 42  1  0  0  0  0
 37 38  1  0  0  0  0
 37 41  1  0  0  0  0
 38 39  2  0  0  0  0
 38 40  1  0  0  0  0
 46 47  1  0  0  0  0
 46 60  1  0  0  0  0
 46 61  1  0  0  0  0
 47 48  1  0  0  0  0
 47 59  1  1  0  0  0
 48 49  1  0  0  0  0
 48 57  1  0  0  0  0
 48 58  1  0  0  0  0
 49 50  1  0  0  0  0
 49 56  1  0  0  0  0
 50 51  2  0  0  0  0
 50 54  1  0  0  0  0
 51 52  1  0  0  0  0
 52 53  2  0  0  0  0
 53 54  1  0  0  0  0
 53 55  1  0  0  0  0
M  END
>  <MODEL>
       3

$$$$
best_conformers_61.pdb
 OpenBabel02042510453D

 64 70  0  0  1  0  0  0  0  0999 V2000
    3.6370   -3.9990   25.3300 O   0  0  0  0  0  0  0  0  0  0  0  0
    4.5430   -3.4550   24.7090 C   0  0  0  0  0  0  0  0  0  0  0  0
    5.0390   -2.0820   25.0410 C   0  0  0  0  0  0  0  0  0  0  0  0
    4.4870   -1.4360   26.1480 C   0  0  0  0  0  0  0  0  0  0  0  0
    4.8150   -0.1260   26.4340 C   0  0  0  0  0  0  0  0  0  0  0  0
    5.6930    0.5410   25.5840 C   0  0  0  0  0  0  0  0  0  0  0  0
    6.0750    2.2090   25.9090 Cl  0  0  0  0  0  0  0  0  0  0  0  0
    6.2610   -0.0880   24.4890 C   0  0  0  0  0  0  0  0  0  0  0  0
    5.9720   -1.4320   24.2200 C   0  0  0  0  0  0  0  0  0  0  0  0
    6.5550   -2.1210   22.9820 C   0  0  1  0  0  0  0  0  0  0  0  0
    6.4790   -3.6470   23.2180 C   0  0  0  0  0  0  0  0  0  0  0  0
    5.1500   -4.0450   23.6360 N   0  0  0  0  0  0  0  0  0  0  0  0
    4.5850   -5.2670   23.0950 C   0  0  0  0  0  0  0  0  0  0  0  0
    5.0840   -6.5270   23.7810 C   0  0  0  0  0  0  0  0  0  0  0  0
    4.4000   -7.1070   24.8290 C   0  0  0  0  0  0  0  0  0  0  0  0
    4.9790   -8.2220   25.4300 C   0  0  0  0  0  0  0  0  0  0  0  0
    6.1320   -8.7510   25.0460 N   0  0  0  0  0  0  0  0  0  0  0  0
    6.7870   -8.2200   24.0240 N   0  0  0  0  0  0  0  0  0  0  0  0
    6.2840   -7.1530   23.4130 C   0  0  0  0  0  0  0  0  0  0  0  0
    6.8900   -6.7920   22.5820 H   0  0  0  0  0  0  0  0  0  0  0  0
    4.5110   -8.7230   26.2750 H   0  0  0  0  0  0  0  0  0  0  0  0
    3.4570   -6.6940   25.1890 H   0  0  0  0  0  0  0  0  0  0  0  0
    4.8250   -5.2900   22.0230 H   0  0  0  0  0  0  0  0  0  0  0  0
    3.4990   -5.2010   23.2030 H   0  0  0  0  0  0  0  0  0  0  0  0
    6.7080   -4.1810   22.2920 H   0  0  0  0  0  0  0  0  0  0  0  0
    7.2110   -3.9340   23.9900 H   0  0  0  0  0  0  0  0  0  0  0  0
    5.6880   -1.7420   21.7610 C   0  0  0  0  0  0  0  0  0  0  0  0
    4.5600   -2.1210   21.5310 O   0  0  0  0  0  0  0  0  0  0  0  0
    6.3980   -0.8700   20.9640 N   0  0  0  0  0  0  0  0  0  0  0  0
    5.8050   -0.2050   19.8560 C   0  0  0  0  0  0  0  0  0  0  0  0
    6.2540   -0.4580   18.5860 C   0  0  0  0  0  0  0  0  0  0  0  0
    5.7780    0.1320   17.4600 N   0  0  0  0  0  0  0  0  0  0  0  0
    4.8050    1.0010   17.6070 C   0  0  0  0  0  0  0  0  0  0  0  0
    4.2380    1.3640   18.8600 C   0  0  0  0  0  0  0  0  0  0  0  0
    3.1910    2.3230   18.9560 C   0  0  0  0  0  0  0  0  0  0  0  0
    2.6780    2.6700   20.1750 C   0  0  0  0  0  0  0  0  0  0  0  0
    3.1990    2.0840   21.3530 C   0  0  0  0  0  0  0  0  0  0  0  0
    4.2130    1.1610   21.2890 C   0  0  0  0  0  0  0  0  0  0  0  0
    4.7510    0.7560   20.0320 C   0  0  0  0  0  0  0  0  0  0  0  0
    4.6030    0.7250   22.2100 H   0  0  0  0  0  0  0  0  0  0  0  0
    2.7850    2.3690   22.3160 H   0  0  0  0  0  0  0  0  0  0  0  0
    1.8770    3.4010   20.2490 H   0  0  0  0  0  0  0  0  0  0  0  0
    2.8150    2.7770   18.0410 H   0  0  0  0  0  0  0  0  0  0  0  0
    4.4140    1.4630   16.6990 H   0  0  0  0  0  0  0  0  0  0  0  0
    7.0450   -1.1890   18.4270 H   0  0  0  0  0  0  0  0  0  0  0  0
    7.7570   -0.6240   21.4070 C   0  0  0  0  0  0  0  0  0  0  0  0
    7.9750   -1.5980   22.5900 C   0  0  2  0  0  0  0  0  0  0  0  0
    9.0380   -2.6690   22.2290 C   0  0  0  0  0  0  0  0  0  0  0  0
   10.3380   -2.0870   21.9680 N   0  0  0  0  0  0  0  0  0  0  0  0
   11.2170   -1.6680   22.9090 C   0  0  0  0  0  0  0  0  0  0  0  0
   12.3520   -1.0880   22.6210 N   0  0  0  0  0  0  0  0  0  0  0  0
   13.0570   -0.7370   23.7400 N   0  0  0  0  0  0  0  0  0  0  0  0
   12.4600   -1.0620   24.8320 C   0  0  0  0  0  0  0  0  0  0  0  0
   10.9310   -1.8570   24.6200 S   0  0  0  0  0  0  0  0  0  0  0  0
   12.8610   -0.8660   25.8160 H   0  0  0  0  0  0  0  0  0  0  0  0
   10.6850   -2.0100   21.0250 H   0  0  0  0  0  0  0  0  0  0  0  0
    8.7490   -3.1910   21.3130 H   0  0  0  0  0  0  0  0  0  0  0  0
    9.1280   -3.4120   23.0330 H   0  0  0  0  0  0  0  0  0  0  0  0
    8.4040   -1.0700   23.4480 H   0  0  0  0  0  0  0  0  0  0  0  0
    8.4580   -0.7990   20.5810 H   0  0  0  0  0  0  0  0  0  0  0  0
    7.8890    0.4240   21.7160 H   0  0  0  0  0  0  0  0  0  0  0  0
    6.9130    0.4990   23.8490 H   0  0  0  0  0  0  0  0  0  0  0  0
    4.3880    0.3930   27.2850 H   0  0  0  0  0  0  0  0  0  0  0  0
    3.7780   -1.9860   26.7570 H   0  0  0  0  0  0  0  0  0  0  0  0
  1  2  2  0  0  0  0
  2  3  1  0  0  0  0
  2 12  1  0  0  0  0
  3  4  2  0  0  0  0
  3  9  1  0  0  0  0
  4  5  1  0  0  0  0
  4 64  1  0  0  0  0
  5  6  2  0  0  0  0
  5 63  1  0  0  0  0
  6  7  1  0  0  0  0
  6  8  1  0  0  0  0
  8  9  2  0  0  0  0
  8 62  1  0  0  0  0
 10  9  1  1  0  0  0
 10 11  1  0  0  0  0
 10 27  1  0  0  0  0
 10 47  1  0  0  0  0
 11 12  1  0  0  0  0
 11 25  1  0  0  0  0
 11 26  1  0  0  0  0
 12 13  1  0  0  0  0
 13 14  1  0  0  0  0
 13 23  1  0  0  0  0
 13 24  1  0  0  0  0
 14 15  2  0  0  0  0
 14 19  1  0  0  0  0
 15 16  1  0  0  0  0
 15 22  1  0  0  0  0
 16 17  2  0  0  0  0
 16 21  1  0  0  0  0
 17 18  1  0  0  0  0
 18 19  2  0  0  0  0
 19 20  1  0  0  0  0
 27 28  2  0  0  0  0
 27 29  1  0  0  0  0
 29 30  1  0  0  0  0
 29 46  1  0  0  0  0
 30 31  2  0  0  0  0
 30 39  1  0  0  0  0
 31 32  1  0  0  0  0
 31 45  1  0  0  0  0
 32 33  2  0  0  0  0
 33 34  1  0  0  0  0
 33 44  1  0  0  0  0
 34 35  2  0  0  0  0
 34 39  1  0  0  0  0
 35 36  1  0  0  0  0
 35 43  1  0  0  0  0
 36 37  2  0  0  0  0
 36 42  1  0  0  0  0
 37 38  1  0  0  0  0
 37 41  1  0  0  0  0
 38 39  2  0  0  0  0
 38 40  1  0  0  0  0
 46 47  1  0  0  0  0
 46 60  1  0  0  0  0
 46 61  1  0  0  0  0
 47 48  1  0  0  0  0
 47 59  1  1  0  0  0
 48 49  1  0  0  0  0
 48 57  1  0  0  0  0
 48 58  1  0  0  0  0
 49 50  1  0  0  0  0
 49 56  1  0  0  0  0
 50 51  2  0  0  0  0
 50 54  1  0  0  0  0
 51 52  1  0  0  0  0
 52 53  2  0  0  0  0
 53 54  1  0  0  0  0
 53 55  1  0  0  0  0
M  END
>  <MODEL>
       4

$$$$
best_conformers_61.pdb
 OpenBabel02042510453D

 64 70  0  0  1  0  0  0  0  0999 V2000
    3.5310   -3.9010   25.2870 O   0  0  0  0  0  0  0  0  0  0  0  0
    4.4610   -3.3740   24.6890 C   0  0  0  0  0  0  0  0  0  0  0  0
    4.9620   -1.9980   25.0120 C   0  0  0  0  0  0  0  0  0  0  0  0
    4.3850   -1.3290   26.0910 C   0  0  0  0  0  0  0  0  0  0  0  0
    4.7320   -0.0240   26.3780 C   0  0  0  0  0  0  0  0  0  0  0  0
    5.6600    0.6140   25.5590 C   0  0  0  0  0  0  0  0  0  0  0  0
    6.0700    2.2760   25.8880 Cl  0  0  0  0  0  0  0  0  0  0  0  0
    6.2540   -0.0370   24.4920 C   0  0  0  0  0  0  0  0  0  0  0  0
    5.9380   -1.3740   24.2190 C   0  0  0  0  0  0  0  0  0  0  0  0
    6.5410   -2.0890   23.0050 C   0  0  1  0  0  0  0  0  0  0  0  0
    6.4520   -3.6070   23.2820 C   0  0  0  0  0  0  0  0  0  0  0  0
    5.1030   -3.9910   23.6550 N   0  0  0  0  0  0  0  0  0  0  0  0
    4.5900   -5.2570   23.1650 C   0  0  0  0  0  0  0  0  0  0  0  0
    5.1420   -6.4640   23.9020 C   0  0  0  0  0  0  0  0  0  0  0  0
    6.3580   -7.0320   23.5830 C   0  0  0  0  0  0  0  0  0  0  0  0
    6.7910   -8.0950   24.3720 C   0  0  0  0  0  0  0  0  0  0  0  0
    6.1000   -8.5940   25.3880 N   0  0  0  0  0  0  0  0  0  0  0  0
    4.9200   -8.0740   25.6910 N   0  0  0  0  0  0  0  0  0  0  0  0
    4.4600   -7.0530   24.9760 C   0  0  0  0  0  0  0  0  0  0  0  0
    3.4870   -6.6790   25.2940 H   0  0  0  0  0  0  0  0  0  0  0  0
    7.7520   -8.5710   24.1890 H   0  0  0  0  0  0  0  0  0  0  0  0
    6.9650   -6.6680   22.7520 H   0  0  0  0  0  0  0  0  0  0  0  0
    4.8550   -5.3160   22.1000 H   0  0  0  0  0  0  0  0  0  0  0  0
    3.5010   -5.2280   23.2500 H   0  0  0  0  0  0  0  0  0  0  0  0
    7.1480   -3.8720   24.0880 H   0  0  0  0  0  0  0  0  0  0  0  0
    6.7110   -4.1610   22.3780 H   0  0  0  0  0  0  0  0  0  0  0  0
    5.6890   -1.7400   21.7610 C   0  0  0  0  0  0  0  0  0  0  0  0
    4.5670   -2.1290   21.5190 O   0  0  0  0  0  0  0  0  0  0  0  0
    6.4030   -0.8770   20.9590 N   0  0  0  0  0  0  0  0  0  0  0  0
    5.8050   -0.2060   19.8540 C   0  0  0  0  0  0  0  0  0  0  0  0
    6.2530   -0.4570   18.5840 C   0  0  0  0  0  0  0  0  0  0  0  0
    5.7770    0.1340   17.4570 N   0  0  0  0  0  0  0  0  0  0  0  0
    4.8040    1.0020   17.6060 C   0  0  0  0  0  0  0  0  0  0  0  0
    4.2370    1.3650   18.8590 C   0  0  0  0  0  0  0  0  0  0  0  0
    3.1900    2.3230   18.9560 C   0  0  0  0  0  0  0  0  0  0  0  0
    2.6770    2.6690   20.1740 C   0  0  0  0  0  0  0  0  0  0  0  0
    3.1990    2.0830   21.3530 C   0  0  0  0  0  0  0  0  0  0  0  0
    4.2120    1.1600   21.2880 C   0  0  0  0  0  0  0  0  0  0  0  0
    4.7500    0.7550   20.0310 C   0  0  0  0  0  0  0  0  0  0  0  0
    4.6020    0.7230   22.2090 H   0  0  0  0  0  0  0  0  0  0  0  0
    2.7840    2.3680   22.3160 H   0  0  0  0  0  0  0  0  0  0  0  0
    1.8760    3.4010   20.2490 H   0  0  0  0  0  0  0  0  0  0  0  0
    2.8140    2.7780   18.0400 H   0  0  0  0  0  0  0  0  0  0  0  0
    4.4130    1.4640   16.6980 H   0  0  0  0  0  0  0  0  0  0  0  0
    7.0450   -1.1870   18.4270 H   0  0  0  0  0  0  0  0  0  0  0  0
    7.7440   -0.5950   21.4370 C   0  0  0  0  0  0  0  0  0  0  0  0
    7.9690   -1.5720   22.6180 C   0  0  2  0  0  0  0  0  0  0  0  0
    9.0360   -2.6280   22.2240 C   0  0  0  0  0  0  0  0  0  0  0  0
    9.4930   -3.4560   23.3270 N   0  0  0  0  0  0  0  0  0  0  0  0
   10.2790   -2.9730   24.3200 C   0  0  0  0  0  0  0  0  0  0  0  0
   10.7370   -1.7540   24.3750 N   0  0  0  0  0  0  0  0  0  0  0  0
   11.4860   -1.5280   25.5010 N   0  0  0  0  0  0  0  0  0  0  0  0
   11.5780   -2.5630   26.2610 C   0  0  0  0  0  0  0  0  0  0  0  0
   10.7440   -3.9720   25.6810 S   0  0  0  0  0  0  0  0  0  0  0  0
   12.1350   -2.5530   27.1880 H   0  0  0  0  0  0  0  0  0  0  0  0
    9.3360   -4.4500   23.2990 H   0  0  0  0  0  0  0  0  0  0  0  0
    9.9040   -2.1000   21.8010 H   0  0  0  0  0  0  0  0  0  0  0  0
    8.6370   -3.2990   21.4590 H   0  0  0  0  0  0  0  0  0  0  0  0
    8.4250   -1.0690   23.4770 H   0  0  0  0  0  0  0  0  0  0  0  0
    8.4690   -0.7440   20.6270 H   0  0  0  0  0  0  0  0  0  0  0  0
    7.8330    0.4540   21.7550 H   0  0  0  0  0  0  0  0  0  0  0  0
    6.9490    0.5250   23.8750 H   0  0  0  0  0  0  0  0  0  0  0  0
    4.2860    0.5120   27.2070 H   0  0  0  0  0  0  0  0  0  0  0  0
    3.6420   -1.8580   26.6760 H   0  0  0  0  0  0  0  0  0  0  0  0
  1  2  2  0  0  0  0
  2  3  1  0  0  0  0
  2 12  1  0  0  0  0
  3  4  2  0  0  0  0
  3  9  1  0  0  0  0
  4  5  1  0  0  0  0
  4 64  1  0  0  0  0
  5  6  2  0  0  0  0
  5 63  1  0  0  0  0
  6  7  1  0  0  0  0
  6  8  1  0  0  0  0
  8  9  2  0  0  0  0
  8 62  1  0  0  0  0
 10  9  1  1  0  0  0
 10 11  1  0  0  0  0
 10 27  1  0  0  0  0
 10 47  1  0  0  0  0
 11 12  1  0  0  0  0
 11 25  1  0  0  0  0
 11 26  1  0  0  0  0
 12 13  1  0  0  0  0
 13 14  1  0  0  0  0
 13 23  1  0  0  0  0
 13 24  1  0  0  0  0
 14 15  2  0  0  0  0
 14 19  1  0  0  0  0
 15 16  1  0  0  0  0
 15 22  1  0  0  0  0
 16 17  2  0  0  0  0
 16 21  1  0  0  0  0
 17 18  1  0  0  0  0
 18 19  2  0  0  0  0
 19 20  1  0  0  0  0
 27 28  2  0  0  0  0
 27 29  1  0  0  0  0
 29 30  1  0  0  0  0
 29 46  1  0  0  0  0
 30 31  2  0  0  0  0
 30 39  1  0  0  0  0
 31 32  1  0  0  0  0
 31 45  1  0  0  0  0
 32 33  2  0  0  0  0
 33 34  1  0  0  0  0
 33 44  1  0  0  0  0
 34 35  2  0  0  0  0
 34 39  1  0  0  0  0
 35 36  1  0  0  0  0
 35 43  1  0  0  0  0
 36 37  2  0  0  0  0
 36 42  1  0  0  0  0
 37 38  1  0  0  0  0
 37 41  1  0  0  0  0
 38 39  2  0  0  0  0
 38 40  1  0  0  0  0
 46 47  1  0  0  0  0
 46 60  1  0  0  0  0
 46 61  1  0  0  0  0
 47 48  1  0  0  0  0
 47 59  1  1  0  0  0
 48 49  1  0  0  0  0
 48 57  1  0  0  0  0
 48 58  1  0  0  0  0
 49 50  1  0  0  0  0
 49 56  1  0  0  0  0
 50 51  2  0  0  0  0
 50 54  1  0  0  0  0
 51 52  1  0  0  0  0
 52 53  2  0  0  0  0
 53 54  1  0  0  0  0
 53 55  1  0  0  0  0
M  END
>  <MODEL>
       5

$$$$
best_conformers_61.pdb
 OpenBabel02042510453D

 64 70  0  0  1  0  0  0  0  0999 V2000
    3.5410   -3.8800   25.3000 O   0  0  0  0  0  0  0  0  0  0  0  0
    4.4750   -3.3620   24.7010 C   0  0  0  0  0  0  0  0  0  0  0  0
    4.9780   -1.9870   25.0190 C   0  0  0  0  0  0  0  0  0  0  0  0
    4.4030   -1.3160   26.0990 C   0  0  0  0  0  0  0  0  0  0  0  0
    4.7470   -0.0100   26.3820 C   0  0  0  0  0  0  0  0  0  0  0  0
    5.6700    0.6280   25.5570 C   0  0  0  0  0  0  0  0  0  0  0  0
    6.0760    2.2920   25.8800 Cl  0  0  0  0  0  0  0  0  0  0  0  0
    6.2620   -0.0250   24.4890 C   0  0  0  0  0  0  0  0  0  0  0  0
    5.9500   -1.3640   24.2210 C   0  0  0  0  0  0  0  0  0  0  0  0
    6.5510   -2.0820   23.0080 C   0  0  1  0  0  0  0  0  0  0  0  0
    6.4650   -3.6010   23.2920 C   0  0  0  0  0  0  0  0  0  0  0  0
    5.1170   -3.9840   23.6690 N   0  0  0  0  0  0  0  0  0  0  0  0
    4.5970   -5.2440   23.1730 C   0  0  0  0  0  0  0  0  0  0  0  0
    5.1100   -6.4560   23.9300 C   0  0  0  0  0  0  0  0  0  0  0  0
    4.4180   -6.9950   24.9950 C   0  0  0  0  0  0  0  0  0  0  0  0
    5.0050   -8.0680   25.6620 C   0  0  0  0  0  0  0  0  0  0  0  0
    6.1700   -8.6000   25.3200 N   0  0  0  0  0  0  0  0  0  0  0  0
    6.8350   -8.1060   24.2870 N   0  0  0  0  0  0  0  0  0  0  0  0
    6.3280   -7.0750   23.6180 C   0  0  0  0  0  0  0  0  0  0  0  0
    6.9450   -6.7470   22.7810 H   0  0  0  0  0  0  0  0  0  0  0  0
    4.5330   -8.5320   26.5260 H   0  0  0  0  0  0  0  0  0  0  0  0
    3.4600   -6.5830   25.3160 H   0  0  0  0  0  0  0  0  0  0  0  0
    4.8710   -5.3110   22.1100 H   0  0  0  0  0  0  0  0  0  0  0  0
    3.5080   -5.2000   23.2460 H   0  0  0  0  0  0  0  0  0  0  0  0
    6.7200   -4.1660   22.3920 H   0  0  0  0  0  0  0  0  0  0  0  0
    7.1630   -3.8620   24.0980 H   0  0  0  0  0  0  0  0  0  0  0  0
    5.6950   -1.7370   21.7660 C   0  0  0  0  0  0  0  0  0  0  0  0
    4.5730   -2.1270   21.5270 O   0  0  0  0  0  0  0  0  0  0  0  0
    6.4050   -0.8740   20.9590 N   0  0  0  0  0  0  0  0  0  0  0  0
    5.8060   -0.2050   19.8550 C   0  0  0  0  0  0  0  0  0  0  0  0
    6.2530   -0.4570   18.5840 C   0  0  0  0  0  0  0  0  0  0  0  0
    5.7770    0.1330   17.4570 N   0  0  0  0  0  0  0  0  0  0  0  0
    4.8040    1.0020   17.6050 C   0  0  0  0  0  0  0  0  0  0  0  0
    4.2370    1.3650   18.8590 C   0  0  0  0  0  0  0  0  0  0  0  0
    3.1900    2.3240   18.9560 C   0  0  0  0  0  0  0  0  0  0  0  0
    2.6780    2.6700   20.1740 C   0  0  0  0  0  0  0  0  0  0  0  0
    3.1990    2.0840   21.3530 C   0  0  0  0  0  0  0  0  0  0  0  0
    4.2130    1.1610   21.2880 C   0  0  0  0  0  0  0  0  0  0  0  0
    4.7510    0.7560   20.0310 C   0  0  0  0  0  0  0  0  0  0  0  0
    4.6030    0.7240   22.2090 H   0  0  0  0  0  0  0  0  0  0  0  0
    2.7850    2.3690   22.3160 H   0  0  0  0  0  0  0  0  0  0  0  0
    1.8770    3.4020   20.2490 H   0  0  0  0  0  0  0  0  0  0  0  0
    2.8140    2.7780   18.0400 H   0  0  0  0  0  0  0  0  0  0  0  0
    4.4130    1.4640   16.6980 H   0  0  0  0  0  0  0  0  0  0  0  0
    7.0450   -1.1870   18.4270 H   0  0  0  0  0  0  0  0  0  0  0  0
    7.7480   -0.5900   21.4340 C   0  0  0  0  0  0  0  0  0  0  0  0
    7.9770   -1.5620   22.6170 C   0  0  2  0  0  0  0  0  0  0  0  0
    9.0460   -2.6160   22.2270 C   0  0  0  0  0  0  0  0  0  0  0  0
    9.5070   -3.4360   23.3350 N   0  0  0  0  0  0  0  0  0  0  0  0
   10.2960   -2.9450   24.3220 C   0  0  0  0  0  0  0  0  0  0  0  0
   10.7510   -1.7240   24.3680 N   0  0  0  0  0  0  0  0  0  0  0  0
   11.5030   -1.4890   25.4900 N   0  0  0  0  0  0  0  0  0  0  0  0
   11.6010   -2.5190   26.2550 C   0  0  0  0  0  0  0  0  0  0  0  0
   10.7690   -3.9340   25.6870 S   0  0  0  0  0  0  0  0  0  0  0  0
   12.1610   -2.5020   27.1800 H   0  0  0  0  0  0  0  0  0  0  0  0
    9.3580   -4.4310   23.3110 H   0  0  0  0  0  0  0  0  0  0  0  0
    9.9120   -2.0880   21.7990 H   0  0  0  0  0  0  0  0  0  0  0  0
    8.6470   -3.2920   21.4660 H   0  0  0  0  0  0  0  0  0  0  0  0
    8.4310   -1.0540   23.4740 H   0  0  0  0  0  0  0  0  0  0  0  0
    8.4710   -0.7410   20.6220 H   0  0  0  0  0  0  0  0  0  0  0  0
    7.8370    0.4610   21.7470 H   0  0  0  0  0  0  0  0  0  0  0  0
    6.9520    0.5390   23.8680 H   0  0  0  0  0  0  0  0  0  0  0  0
    4.3020    0.5270   27.2110 H   0  0  0  0  0  0  0  0  0  0  0  0
    3.6630   -1.8460   26.6890 H   0  0  0  0  0  0  0  0  0  0  0  0
  1  2  2  0  0  0  0
  2  3  1  0  0  0  0
  2 12  1  0  0  0  0
  3  4  2  0  0  0  0
  3  9  1  0  0  0  0
  4  5  1  0  0  0  0
  4 64  1  0  0  0  0
  5  6  2  0  0  0  0
  5 63  1  0  0  0  0
  6  7  1  0  0  0  0
  6  8  1  0  0  0  0
  8  9  2  0  0  0  0
  8 62  1  0  0  0  0
 10  9  1  1  0  0  0
 10 11  1  0  0  0  0
 10 27  1  0  0  0  0
 10 47  1  0  0  0  0
 11 12  1  0  0  0  0
 11 25  1  0  0  0  0
 11 26  1  0  0  0  0
 12 13  1  0  0  0  0
 13 14  1  0  0  0  0
 13 23  1  0  0  0  0
 13 24  1  0  0  0  0
 14 15  2  0  0  0  0
 14 19  1  0  0  0  0
 15 16  1  0  0  0  0
 15 22  1  0  0  0  0
 16 17  2  0  0  0  0
 16 21  1  0  0  0  0
 17 18  1  0  0  0  0
 18 19  2  0  0  0  0
 19 20  1  0  0  0  0
 27 28  2  0  0  0  0
 27 29  1  0  0  0  0
 29 30  1  0  0  0  0
 29 46  1  0  0  0  0
 30 31  2  0  0  0  0
 30 39  1  0  0  0  0
 31 32  1  0  0  0  0
 31 45  1  0  0  0  0
 32 33  2  0  0  0  0
 33 34  1  0  0  0  0
 33 44  1  0  0  0  0
 34 35  2  0  0  0  0
 34 39  1  0  0  0  0
 35 36  1  0  0  0  0
 35 43  1  0  0  0  0
 36 37  2  0  0  0  0
 36 42  1  0  0  0  0
 37 38  1  0  0  0  0
 37 41  1  0  0  0  0
 38 39  2  0  0  0  0
 38 40  1  0  0  0  0
 46 47  1  0  0  0  0
 46 60  1  0  0  0  0
 46 61  1  0  0  0  0
 47 48  1  0  0  0  0
 47 59  1  1  0  0  0
 48 49  1  0  0  0  0
 48 57  1  0  0  0  0
 48 58  1  0  0  0  0
 49 50  1  0  0  0  0
 49 56  1  0  0  0  0
 50 51  2  0  0  0  0
 50 54  1  0  0  0  0
 51 52  1  0  0  0  0
 52 53  2  0  0  0  0
 53 54  1  0  0  0  0
 53 55  1  0  0  0  0
M  END
>  <MODEL>
       6

$$$$
