best_conformers_65.pdb
 OpenBabel02042510453D

 54 59  0  0  1  0  0  0  0  0999 V2000
    9.1050    2.3350   24.0100 C   0  0  0  0  0  0  0  0  0  0  0  0
    8.2930    1.5170   24.8910 N   0  0  0  0  0  0  0  0  0  0  0  0
    6.9600    1.4650   24.6640 C   0  0  0  0  0  0  0  0  0  0  0  0
    6.4630    1.9840   23.6750 O   0  0  0  0  0  0  0  0  0  0  0  0
    6.1080    0.6910   25.6730 C   0  0  0  0  0  0  0  0  0  0  0  0
    6.1220   -0.7280   25.3910 N   0  0  0  0  0  0  0  0  0  0  0  0
    7.0250   -1.5730   26.0110 C   0  0  0  0  0  0  0  0  0  0  0  0
    7.8150   -1.2320   26.8700 O   0  0  0  0  0  0  0  0  0  0  0  0
    6.8210   -2.9160   25.3870 C   0  0  0  0  0  0  0  0  0  0  0  0
    7.3150   -4.1270   25.7970 C   0  0  0  0  0  0  0  0  0  0  0  0
    6.8230   -5.3030   25.1710 C   0  0  0  0  0  0  0  0  0  0  0  0
    5.7870   -5.2420   24.2830 C   0  0  0  0  0  0  0  0  0  0  0  0
    5.0700   -6.7000   23.6680 Cl  0  0  0  0  0  0  0  0  0  0  0  0
    5.0950   -3.9910   23.8850 C   0  0  0  0  0  0  0  0  0  0  0  0
    5.9450   -2.7780   24.2290 C   0  0  1  0  0  0  0  0  0  0  0  0
    5.4850   -1.3510   24.2680 C   0  0  2  0  0  0  0  0  0  0  0  0
    6.3440   -1.8220   23.1010 C   0  0  2  0  0  0  0  0  0  0  0  0
    5.6450   -1.7690   21.7600 C   0  0  0  0  0  0  0  0  0  0  0  0
    4.6050   -2.2950   21.4090 O   0  0  0  0  0  0  0  0  0  0  0  0
    6.3760   -0.9050   20.9650 N   0  0  0  0  0  0  0  0  0  0  0  0
    5.7970   -0.2400   19.8580 C   0  0  0  0  0  0  0  0  0  0  0  0
    6.2940   -0.4790   18.6060 C   0  0  0  0  0  0  0  0  0  0  0  0
    5.8300    0.1010   17.4740 N   0  0  0  0  0  0  0  0  0  0  0  0
    4.8430    0.9570   17.6160 C   0  0  0  0  0  0  0  0  0  0  0  0
    4.2550    1.3130   18.8630 C   0  0  0  0  0  0  0  0  0  0  0  0
    3.2120    2.2700   18.9510 C   0  0  0  0  0  0  0  0  0  0  0  0
    2.7020    2.6250   20.1670 C   0  0  0  0  0  0  0  0  0  0  0  0
    3.2180    2.0570   21.3550 C   0  0  0  0  0  0  0  0  0  0  0  0
    4.2310    1.1330   21.3030 C   0  0  0  0  0  0  0  0  0  0  0  0
    4.7520    0.7190   20.0400 C   0  0  0  0  0  0  0  0  0  0  0  0
    4.6670    0.7440   22.2250 H   0  0  0  0  0  0  0  0  0  0  0  0
    2.8110    2.3660   22.3130 H   0  0  0  0  0  0  0  0  0  0  0  0
    1.9100    3.3670   20.2300 H   0  0  0  0  0  0  0  0  0  0  0  0
    2.8540    2.7250   18.0320 H   0  0  0  0  0  0  0  0  0  0  0  0
    4.4560    1.4210   16.7100 H   0  0  0  0  0  0  0  0  0  0  0  0
    7.1160   -1.1860   18.4970 H   0  0  0  0  0  0  0  0  0  0  0  0
    7.6240   -0.4560   21.5710 C   0  0  0  0  0  0  0  0  0  0  0  0
    7.7000   -1.3020   22.8210 C   0  0  0  0  0  0  0  0  0  0  0  0
    8.8380   -1.5000   23.4890 C   0  0  0  0  0  0  0  0  0  0  0  0
    9.9380   -0.8010   23.1460 F   0  0  0  0  0  0  0  0  0  0  0  0
    9.0100   -2.2120   24.2890 H   0  0  0  0  0  0  0  0  0  0  0  0
    7.5570    0.6120   21.8280 H   0  0  0  0  0  0  0  0  0  0  0  0
    8.4840   -0.6130   20.9120 H   0  0  0  0  0  0  0  0  0  0  0  0
    4.4780   -1.0290   24.0330 H   0  0  0  0  0  0  0  0  0  0  0  0
    4.8600   -4.0230   22.8150 H   0  0  0  0  0  0  0  0  0  0  0  0
    4.1120   -3.9510   24.3880 H   0  0  0  0  0  0  0  0  0  0  0  0
    7.2710   -6.2670   25.3970 H   0  0  0  0  0  0  0  0  0  0  0  0
    8.0490   -4.1920   26.5950 H   0  0  0  0  0  0  0  0  0  0  0  0
    5.0850    1.0670   25.6080 H   0  0  0  0  0  0  0  0  0  0  0  0
    6.4630    0.8330   26.6940 H   0  0  0  0  0  0  0  0  0  0  0  0
    8.7180    0.9920   25.6380 H   0  0  0  0  0  0  0  0  0  0  0  0
    8.7970    2.1300   22.9820 H   0  0  0  0  0  0  0  0  0  0  0  0
   10.1680    2.1050   24.1120 H   0  0  0  0  0  0  0  0  0  0  0  0
    8.9280    3.3980   24.2120 H   0  0  0  0  0  0  0  0  0  0  0  0
  1  2  1  0  0  0  0
  1 52  1  0  0  0  0
  1 53  1  0  0  0  0
  1 54  1  0  0  0  0
  2  3  1  0  0  0  0
  2 51  1  0  0  0  0
  3  4  2  0  0  0  0
  3  5  1  0  0  0  0
  5  6  1  0  0  0  0
  5 49  1  0  0  0  0
  5 50  1  0  0  0  0
  6  7  1  0  0  0  0
  6 16  1  0  0  0  0
  7  8  2  0  0  0  0
  7  9  1  0  0  0  0
  9 10  2  0  0  0  0
 10 11  1  0  0  0  0
 10 48  1  0  0  0  0
 11 12  2  0  0  0  0
 11 47  1  0  0  0  0
 12 13  1  0  0  0  0
 12 14  1  0  0  0  0
 14 15  1  0  0  0  0
 14 45  1  0  0  0  0
 14 46  1  0  0  0  0
 15  9  1  1  0  0  0
 15 16  1  0  0  0  0
 15 17  1  0  0  0  0
 16 17  1  0  0  0  0
 16 44  1  6  0  0  0
 17 18  1  6  0  0  0
 17 38  1  0  0  0  0
 18 19  2  0  0  0  0
 18 20  1  0  0  0  0
 20 21  1  0  0  0  0
 20 37  1  0  0  0  0
 21 22  2  0  0  0  0
 21 30  1  0  0  0  0
 22 23  1  0  0  0  0
 22 36  1  0  0  0  0
 23 24  2  0  0  0  0
 24 25  1  0  0  0  0
 24 35  1  0  0  0  0
 25 26  2  0  0  0  0
 25 30  1  0  0  0  0
 26 27  1  0  0  0  0
 26 34  1  0  0  0  0
 27 28  2  0  0  0  0
 27 33  1  0  0  0  0
 28 29  1  0  0  0  0
 28 32  1  0  0  0  0
 29 30  2  0  0  0  0
 29 31  1  0  0  0  0
 37 38  1  0  0  0  0
 37 42  1  0  0  0  0
 37 43  1  0  0  0  0
 38 39  2  0  0  0  0
 39 40  1  0  0  0  0
 39 41  1  0  0  0  0
M  END
>  <MODEL>
       1

$$$$
best_conformers_65.pdb
 OpenBabel02042510453D

 54 59  0  0  1  0  0  0  0  0999 V2000
    8.1140    2.9260   23.8020 C   0  0  0  0  0  0  0  0  0  0  0  0
    6.9890    2.0810   24.1600 N   0  0  0  0  0  0  0  0  0  0  0  0
    6.9990    1.4700   25.3810 C   0  0  0  0  0  0  0  0  0  0  0  0
    7.9180    1.6160   26.1680 O   0  0  0  0  0  0  0  0  0  0  0  0
    5.7630    0.6180   25.6980 C   0  0  0  0  0  0  0  0  0  0  0  0
    5.9420   -0.7840   25.3830 N   0  0  0  0  0  0  0  0  0  0  0  0
    6.7360   -1.6230   26.1460 C   0  0  0  0  0  0  0  0  0  0  0  0
    7.2820   -1.3240   27.1890 O   0  0  0  0  0  0  0  0  0  0  0  0
    6.7280   -2.9390   25.4540 C   0  0  0  0  0  0  0  0  0  0  0  0
    7.2280   -4.1220   25.9220 C   0  0  0  0  0  0  0  0  0  0  0  0
    6.8920   -5.3140   25.2400 C   0  0  0  0  0  0  0  0  0  0  0  0
    5.9180   -5.3110   24.2850 C   0  0  0  0  0  0  0  0  0  0  0  0
    5.2880   -6.7980   23.6560 Cl  0  0  0  0  0  0  0  0  0  0  0  0
    5.2000   -4.0930   23.8390 C   0  0  0  0  0  0  0  0  0  0  0  0
    5.9710   -2.8390   24.2160 C   0  0  1  0  0  0  0  0  0  0  0  0
    5.4060   -1.4490   24.2360 C   0  0  2  0  0  0  0  0  0  0  0  0
    6.3490   -1.8380   23.1080 C   0  0  2  0  0  0  0  0  0  0  0  0
    5.6850   -1.7690   21.7460 C   0  0  0  0  0  0  0  0  0  0  0  0
    4.6810   -2.3250   21.3400 O   0  0  0  0  0  0  0  0  0  0  0  0
    6.4070   -0.8790   20.9710 N   0  0  0  0  0  0  0  0  0  0  0  0
    5.8110   -0.2190   19.8640 C   0  0  0  0  0  0  0  0  0  0  0  0
    6.2800   -0.4660   18.6020 C   0  0  0  0  0  0  0  0  0  0  0  0
    5.8040    0.1130   17.4710 N   0  0  0  0  0  0  0  0  0  0  0  0
    4.8200    0.9730   17.6070 C   0  0  0  0  0  0  0  0  0  0  0  0
    4.2520    1.3380   18.8620 C   0  0  0  0  0  0  0  0  0  0  0  0
    3.2090    2.2970   18.9610 C   0  0  0  0  0  0  0  0  0  0  0  0
    2.6970    2.6420   20.1810 C   0  0  0  0  0  0  0  0  0  0  0  0
    3.1990    2.0500   21.3640 C   0  0  0  0  0  0  0  0  0  0  0  0
    4.2080    1.1190   21.2990 C   0  0  0  0  0  0  0  0  0  0  0  0
    4.7550    0.7350   20.0360 C   0  0  0  0  0  0  0  0  0  0  0  0
    4.6020    0.6740   22.2140 H   0  0  0  0  0  0  0  0  0  0  0  0
    2.7890    2.3500   22.3250 H   0  0  0  0  0  0  0  0  0  0  0  0
    1.9020    3.3810   20.2530 H   0  0  0  0  0  0  0  0  0  0  0  0
    2.8400    2.7610   18.0510 H   0  0  0  0  0  0  0  0  0  0  0  0
    4.4370    1.4490   16.7020 H   0  0  0  0  0  0  0  0  0  0  0  0
    7.0760   -1.1970   18.4720 H   0  0  0  0  0  0  0  0  0  0  0  0
    7.6070   -0.3780   21.6180 C   0  0  0  0  0  0  0  0  0  0  0  0
    7.6610   -1.1930   22.8870 C   0  0  0  0  0  0  0  0  0  0  0  0
    8.7570   -1.2230   23.6380 C   0  0  0  0  0  0  0  0  0  0  0  0
    9.8100   -0.4450   23.3180 F   0  0  0  0  0  0  0  0  0  0  0  0
    8.9390   -1.8600   24.4910 H   0  0  0  0  0  0  0  0  0  0  0  0
    7.5230    0.6940   21.8550 H   0  0  0  0  0  0  0  0  0  0  0  0
    8.4810   -0.5180   20.9770 H   0  0  0  0  0  0  0  0  0  0  0  0
    4.3760   -1.2290   23.9780 H   0  0  0  0  0  0  0  0  0  0  0  0
    5.0110   -4.1330   22.7620 H   0  0  0  0  0  0  0  0  0  0  0  0
    4.2020   -4.0980   24.3110 H   0  0  0  0  0  0  0  0  0  0  0  0
    7.3780   -6.2360   25.5340 H   0  0  0  0  0  0  0  0  0  0  0  0
    7.8570   -4.1490   26.8030 H   0  0  0  0  0  0  0  0  0  0  0  0
    5.5650    0.7310   26.7660 H   0  0  0  0  0  0  0  0  0  0  0  0
    4.9000    0.9810   25.1270 H   0  0  0  0  0  0  0  0  0  0  0  0
    6.1720    2.0540   23.5640 H   0  0  0  0  0  0  0  0  0  0  0  0
    8.2660    3.7010   24.5610 H   0  0  0  0  0  0  0  0  0  0  0  0
    9.0240    2.3180   23.7520 H   0  0  0  0  0  0  0  0  0  0  0  0
    7.9430    3.4070   22.8340 H   0  0  0  0  0  0  0  0  0  0  0  0
  1  2  1  0  0  0  0
  1 52  1  0  0  0  0
  1 53  1  0  0  0  0
  1 54  1  0  0  0  0
  2  3  1  0  0  0  0
  2 51  1  0  0  0  0
  3  4  2  0  0  0  0
  3  5  1  0  0  0  0
  5  6  1  0  0  0  0
  5 49  1  0  0  0  0
  5 50  1  0  0  0  0
  6  7  1  0  0  0  0
  6 16  1  0  0  0  0
  7  8  2  0  0  0  0
  7  9  1  0  0  0  0
  9 10  2  0  0  0  0
 10 11  1  0  0  0  0
 10 48  1  0  0  0  0
 11 12  2  0  0  0  0
 11 47  1  0  0  0  0
 12 13  1  0  0  0  0
 12 14  1  0  0  0  0
 14 15  1  0  0  0  0
 14 45  1  0  0  0  0
 14 46  1  0  0  0  0
 15  9  1  1  0  0  0
 15 16  1  0  0  0  0
 15 17  1  0  0  0  0
 16 17  1  0  0  0  0
 16 44  1  6  0  0  0
 17 18  1  6  0  0  0
 17 38  1  0  0  0  0
 18 19  2  0  0  0  0
 18 20  1  0  0  0  0
 20 21  1  0  0  0  0
 20 37  1  0  0  0  0
 21 22  2  0  0  0  0
 21 30  1  0  0  0  0
 22 23  1  0  0  0  0
 22 36  1  0  0  0  0
 23 24  2  0  0  0  0
 24 25  1  0  0  0  0
 24 35  1  0  0  0  0
 25 26  2  0  0  0  0
 25 30  1  0  0  0  0
 26 27  1  0  0  0  0
 26 34  1  0  0  0  0
 27 28  2  0  0  0  0
 27 33  1  0  0  0  0
 28 29  1  0  0  0  0
 28 32  1  0  0  0  0
 29 30  2  0  0  0  0
 29 31  1  0  0  0  0
 37 38  1  0  0  0  0
 37 42  1  0  0  0  0
 37 43  1  0  0  0  0
 38 39  2  0  0  0  0
 39 40  1  0  0  0  0
 39 41  1  0  0  0  0
M  END
>  <MODEL>
       2

$$$$
