best_conformers_34.pdb
 OpenBabel02042510453D

 58 63  0  0  1  0  0  0  0  0999 V2000
    8.9880   -2.6960   22.1660 C   0  0  0  0  0  0  0  0  0  0  0  0
    7.9740   -1.6120   22.5640 C   0  0  1  0  0  0  0  0  0  0  0  0
    7.7510   -0.6190   21.3970 C   0  0  0  0  0  0  0  0  0  0  0  0
    6.3990   -0.8750   20.9500 N   0  0  0  0  0  0  0  0  0  0  0  0
    5.8070   -0.2070   19.8560 C   0  0  0  0  0  0  0  0  0  0  0  0
    6.2720   -0.4560   18.5890 C   0  0  0  0  0  0  0  0  0  0  0  0
    5.7940    0.1250   17.4620 N   0  0  0  0  0  0  0  0  0  0  0  0
    4.8150    0.9890   17.6110 C   0  0  0  0  0  0  0  0  0  0  0  0
    4.2470    1.3510   18.8680 C   0  0  0  0  0  0  0  0  0  0  0  0
    3.2020    2.3090   18.9580 C   0  0  0  0  0  0  0  0  0  0  0  0
    2.6870    2.6640   20.1740 C   0  0  0  0  0  0  0  0  0  0  0  0
    3.1990    2.0830   21.3560 C   0  0  0  0  0  0  0  0  0  0  0  0
    4.2090    1.1530   21.3010 C   0  0  0  0  0  0  0  0  0  0  0  0
    4.7530    0.7490   20.0410 C   0  0  0  0  0  0  0  0  0  0  0  0
    4.5940    0.7240   22.2260 H   0  0  0  0  0  0  0  0  0  0  0  0
    2.7860    2.3770   22.3170 H   0  0  0  0  0  0  0  0  0  0  0  0
    1.8850    3.3960   20.2400 H   0  0  0  0  0  0  0  0  0  0  0  0
    2.8320    2.7600   18.0400 H   0  0  0  0  0  0  0  0  0  0  0  0
    4.4230    1.4520   16.7060 H   0  0  0  0  0  0  0  0  0  0  0  0
    7.0660   -1.1880   18.4450 H   0  0  0  0  0  0  0  0  0  0  0  0
    5.6870   -1.7500   21.7310 C   0  0  0  0  0  0  0  0  0  0  0  0
    4.5730   -2.1490   21.4760 O   0  0  0  0  0  0  0  0  0  0  0  0
    6.5480   -2.1200   22.9570 C   0  0  1  0  0  0  0  0  0  0  0  0
    6.4740   -3.6380   23.1900 C   0  0  0  0  0  0  0  0  0  0  0  0
    5.1520   -4.0280   23.6330 N   0  0  0  0  0  0  0  0  0  0  0  0
    4.5850   -5.2520   23.1130 C   0  0  0  0  0  0  0  0  0  0  0  0
    5.1750   -6.5000   23.7050 C   0  0  0  0  0  0  0  0  0  0  0  0
    4.7950   -7.2660   24.8170 C   0  0  0  0  0  0  0  0  0  0  0  0
    5.6420   -8.2840   24.9590 N   0  0  0  0  0  0  0  0  0  0  0  0
    6.4950   -8.0980   23.9720 N   0  0  0  0  0  0  0  0  0  0  0  0
    7.6580   -8.9130   23.7310 C   0  0  0  0  0  0  0  0  0  0  0  0
    7.9260   -8.7760   22.6880 H   0  0  0  0  0  0  0  0  0  0  0  0
    8.4780   -8.6000   24.3790 H   0  0  0  0  0  0  0  0  0  0  0  0
    7.4170   -9.9530   23.9250 H   0  0  0  0  0  0  0  0  0  0  0  0
    6.2610   -7.0670   23.1880 N   0  0  0  0  0  0  0  0  0  0  0  0
    3.9840   -7.1370   25.5170 H   0  0  0  0  0  0  0  0  0  0  0  0
    4.7780   -5.2550   22.0360 H   0  0  0  0  0  0  0  0  0  0  0  0
    3.5070   -5.1940   23.2870 H   0  0  0  0  0  0  0  0  0  0  0  0
    4.5740   -3.4650   24.7320 C   0  0  0  0  0  0  0  0  0  0  0  0
    3.6950   -4.0230   25.3790 O   0  0  0  0  0  0  0  0  0  0  0  0
    5.0730   -2.0950   25.0460 C   0  0  0  0  0  0  0  0  0  0  0  0
    4.5420   -1.4760   26.1740 C   0  0  0  0  0  0  0  0  0  0  0  0
    4.8770   -0.1700   26.4690 C   0  0  0  0  0  0  0  0  0  0  0  0
    5.7410    0.4920   25.6050 C   0  0  0  0  0  0  0  0  0  0  0  0
    6.0530    1.7720   25.8730 F   0  0  0  0  0  0  0  0  0  0  0  0
    6.2910   -0.1050   24.4860 C   0  0  0  0  0  0  0  0  0  0  0  0
    5.9800   -1.4400   24.2010 C   0  0  0  0  0  0  0  0  0  0  0  0
    6.9530    0.4840   23.8600 H   0  0  0  0  0  0  0  0  0  0  0  0
    4.4740    0.3540   27.3250 H   0  0  0  0  0  0  0  0  0  0  0  0
    3.8520   -2.0580   26.7790 H   0  0  0  0  0  0  0  0  0  0  0  0
    7.2260   -3.9170   23.9430 H   0  0  0  0  0  0  0  0  0  0  0  0
    6.6840   -4.1730   22.2620 H   0  0  0  0  0  0  0  0  0  0  0  0
    7.8620    0.4290   21.7110 H   0  0  0  0  0  0  0  0  0  0  0  0
    8.4630   -0.7850   20.5780 H   0  0  0  0  0  0  0  0  0  0  0  0
    8.4040   -1.0970   23.4300 H   0  0  0  0  0  0  0  0  0  0  0  0
    9.9420   -2.2350   21.8850 H   0  0  0  0  0  0  0  0  0  0  0  0
    8.6420   -3.2830   21.3110 H   0  0  0  0  0  0  0  0  0  0  0  0
    9.1930   -3.3860   22.9890 H   0  0  0  0  0  0  0  0  0  0  0  0
  1  2  1  0  0  0  0
  1 56  1  0  0  0  0
  1 57  1  0  0  0  0
  1 58  1  0  0  0  0
  2  3  1  0  0  0  0
  2 23  1  0  0  0  0
  2 55  1  1  0  0  0
  3  4  1  0  0  0  0
  3 53  1  0  0  0  0
  3 54  1  0  0  0  0
  4  5  1  0  0  0  0
  4 21  1  0  0  0  0
  5  6  2  0  0  0  0
  5 14  1  0  0  0  0
  6  7  1  0  0  0  0
  6 20  1  0  0  0  0
  7  8  2  0  0  0  0
  8  9  1  0  0  0  0
  8 19  1  0  0  0  0
  9 10  2  0  0  0  0
  9 14  1  0  0  0  0
 10 11  1  0  0  0  0
 10 18  1  0  0  0  0
 11 12  2  0  0  0  0
 11 17  1  0  0  0  0
 12 13  1  0  0  0  0
 12 16  1  0  0  0  0
 13 14  2  0  0  0  0
 13 15  1  0  0  0  0
 21 22  2  0  0  0  0
 23 21  1  6  0  0  0
 23 24  1  0  0  0  0
 23 47  1  0  0  0  0
 24 25  1  0  0  0  0
 24 51  1  0  0  0  0
 24 52  1  0  0  0  0
 25 26  1  0  0  0  0
 25 39  1  0  0  0  0
 26 27  1  0  0  0  0
 26 37  1  0  0  0  0
 26 38  1  0  0  0  0
 27 28  1  0  0  0  0
 27 35  2  0  0  0  0
 28 29  2  0  0  0  0
 28 36  1  0  0  0  0
 29 30  1  0  0  0  0
 30 31  1  0  0  0  0
 30 35  1  0  0  0  0
 31 32  1  0  0  0  0
 31 33  1  0  0  0  0
 31 34  1  0  0  0  0
 39 40  2  0  0  0  0
 39 41  1  0  0  0  0
 41 42  2  0  0  0  0
 41 47  1  0  0  0  0
 42 43  1  0  0  0  0
 42 50  1  0  0  0  0
 43 44  2  0  0  0  0
 43 49  1  0  0  0  0
 44 45  1  0  0  0  0
 44 46  1  0  0  0  0
 46 47  2  0  0  0  0
 46 48  1  0  0  0  0
M  END
>  <MODEL>
       1

$$$$
