best_conformers_8.pdb
 OpenBabel02042510453D

 66 71  0  0  1  0  0  0  0  0999 V2000
    6.9090   -3.6280   23.2960 C   0  0  0  0  0  0  0  0  0  0  0  0
    7.3250   -2.4640   22.3940 C   0  0  1  0  0  0  0  0  0  0  0  0
    6.3280   -2.2000   21.2540 C   0  0  0  0  0  0  0  0  0  0  0  0
    6.4600   -0.7800   20.9820 N   0  0  0  0  0  0  0  0  0  0  0  0
    5.8490   -0.1490   19.8670 C   0  0  0  0  0  0  0  0  0  0  0  0
    6.2600   -0.4560   18.5930 C   0  0  0  0  0  0  0  0  0  0  0  0
    5.7710    0.1150   17.4640 N   0  0  0  0  0  0  0  0  0  0  0  0
    4.8070    0.9960   17.6080 C   0  0  0  0  0  0  0  0  0  0  0  0
    4.2410    1.3650   18.8610 C   0  0  0  0  0  0  0  0  0  0  0  0
    3.1790    2.3080   18.9540 C   0  0  0  0  0  0  0  0  0  0  0  0
    2.6300    2.6200   20.1670 C   0  0  0  0  0  0  0  0  0  0  0  0
    3.1130    1.9970   21.3400 C   0  0  0  0  0  0  0  0  0  0  0  0
    4.1400    1.0920   21.2750 C   0  0  0  0  0  0  0  0  0  0  0  0
    4.7560    0.7660   20.0330 C   0  0  0  0  0  0  0  0  0  0  0  0
    4.5010    0.6240   22.1840 H   0  0  0  0  0  0  0  0  0  0  0  0
    2.6740    2.2490   22.3020 H   0  0  0  0  0  0  0  0  0  0  0  0
    1.8250    3.3490   20.2370 H   0  0  0  0  0  0  0  0  0  0  0  0
    2.8200    2.7760   18.0390 H   0  0  0  0  0  0  0  0  0  0  0  0
    4.4190    1.4580   16.7000 H   0  0  0  0  0  0  0  0  0  0  0  0
    7.0460   -1.1930   18.4320 H   0  0  0  0  0  0  0  0  0  0  0  0
    7.1100   -0.0800   21.9750 C   0  0  0  0  0  0  0  0  0  0  0  0
    7.2830    1.1230   21.9650 O   0  0  0  0  0  0  0  0  0  0  0  0
    7.5280   -1.0650   23.0850 C   0  0  1  0  0  0  0  0  0  0  0  0
    6.6040   -0.8050   24.3020 C   0  0  0  0  0  0  0  0  0  0  0  0
    7.0510   -1.5100   25.4920 N   0  0  0  0  0  0  0  0  0  0  0  0
    6.0720   -1.9700   26.4620 C   0  0  0  0  0  0  0  0  0  0  0  0
    5.5690   -0.8630   27.3910 C   0  0  0  0  0  0  0  0  0  0  0  0
    4.7050   -0.0740   27.0340 O   0  0  0  0  0  0  0  0  0  0  0  0
    6.1190   -0.8380   28.6360 N   0  0  0  0  0  0  0  0  0  0  0  0
    5.7090    0.2050   29.5740 C   0  0  0  0  0  0  0  0  0  0  0  0
    4.2980    0.0380   30.0760 C   0  0  0  0  0  0  0  0  0  0  0  0
    3.1520    0.7680   29.8250 C   0  0  0  0  0  0  0  0  0  0  0  0
    2.1250    0.0650   30.4860 C   0  0  0  0  0  0  0  0  0  0  0  0
    2.5990   -1.0070   31.1080 N   0  0  0  0  0  0  0  0  0  0  0  0
    3.9170   -1.0020   30.8570 N   0  0  0  0  0  0  0  0  0  0  0  0
    4.7500   -2.0680   31.3710 C   0  0  0  0  0  0  0  0  0  0  0  0
    4.1480   -2.5920   32.1160 H   0  0  0  0  0  0  0  0  0  0  0  0
    5.6500   -1.6520   31.8400 H   0  0  0  0  0  0  0  0  0  0  0  0
    5.0410   -2.7600   30.5690 H   0  0  0  0  0  0  0  0  0  0  0  0
    1.0580    0.2620   30.5270 H   0  0  0  0  0  0  0  0  0  0  0  0
    3.1000    1.6300   29.1710 H   0  0  0  0  0  0  0  0  0  0  0  0
    5.7370    1.1770   29.0730 H   0  0  0  0  0  0  0  0  0  0  0  0
    6.4280    0.2290   30.4020 H   0  0  0  0  0  0  0  0  0  0  0  0
    6.9050   -1.4440   28.8250 H   0  0  0  0  0  0  0  0  0  0  0  0
    5.1910   -2.3300   25.9230 H   0  0  0  0  0  0  0  0  0  0  0  0
    6.5180   -2.7930   27.0250 H   0  0  0  0  0  0  0  0  0  0  0  0
    8.3620   -1.5180   25.8690 C   0  0  0  0  0  0  0  0  0  0  0  0
    8.7100   -1.9230   26.9670 O   0  0  0  0  0  0  0  0  0  0  0  0
    9.3550   -1.0580   24.8490 C   0  0  0  0  0  0  0  0  0  0  0  0
   10.6880   -0.9270   25.2340 C   0  0  0  0  0  0  0  0  0  0  0  0
   11.6520   -0.6020   24.2960 C   0  0  0  0  0  0  0  0  0  0  0  0
   11.2840   -0.4200   22.9610 C   0  0  0  0  0  0  0  0  0  0  0  0
    9.9570   -0.5520   22.5790 C   0  0  0  0  0  0  0  0  0  0  0  0
    8.9660   -0.8490   23.5230 C   0  0  0  0  0  0  0  0  0  0  0  0
    9.6770   -0.4160   21.5370 H   0  0  0  0  0  0  0  0  0  0  0  0
   12.0400   -0.1790   22.2190 H   0  0  0  0  0  0  0  0  0  0  0  0
   12.6920   -0.5070   24.5940 H   0  0  0  0  0  0  0  0  0  0  0  0
   10.9330   -1.1160   26.2740 H   0  0  0  0  0  0  0  0  0  0  0  0
    5.5770   -1.1280   24.0850 H   0  0  0  0  0  0  0  0  0  0  0  0
    6.5990    0.2800   24.4830 H   0  0  0  0  0  0  0  0  0  0  0  0
    5.2990   -2.4540   21.5500 H   0  0  0  0  0  0  0  0  0  0  0  0
    6.5510   -2.7670   20.3520 H   0  0  0  0  0  0  0  0  0  0  0  0
    8.3030   -2.7000   21.9490 H   0  0  0  0  0  0  0  0  0  0  0  0
    6.8610   -4.5630   22.7290 H   0  0  0  0  0  0  0  0  0  0  0  0
    7.6150   -3.7660   24.1200 H   0  0  0  0  0  0  0  0  0  0  0  0
    5.9190   -3.4570   23.7340 H   0  0  0  0  0  0  0  0  0  0  0  0
  1  2  1  0  0  0  0
  1 64  1  0  0  0  0
  1 65  1  0  0  0  0
  1 66  1  0  0  0  0
  2  3  1  0  0  0  0
  2 23  1  0  0  0  0
  2 63  1  6  0  0  0
  3  4  1  0  0  0  0
  3 61  1  0  0  0  0
  3 62  1  0  0  0  0
  4  5  1  0  0  0  0
  4 21  1  0  0  0  0
  5  6  2  0  0  0  0
  5 14  1  0  0  0  0
  6  7  1  0  0  0  0
  6 20  1  0  0  0  0
  7  8  2  0  0  0  0
  8  9  1  0  0  0  0
  8 19  1  0  0  0  0
  9 10  2  0  0  0  0
  9 14  1  0  0  0  0
 10 11  1  0  0  0  0
 10 18  1  0  0  0  0
 11 12  2  0  0  0  0
 11 17  1  0  0  0  0
 12 13  1  0  0  0  0
 12 16  1  0  0  0  0
 13 14  2  0  0  0  0
 13 15  1  0  0  0  0
 21 22  2  0  0  0  0
 23 21  1  6  0  0  0
 23 24  1  0  0  0  0
 23 54  1  0  0  0  0
 24 25  1  0  0  0  0
 24 59  1  0  0  0  0
 24 60  1  0  0  0  0
 25 26  1  0  0  0  0
 25 47  1  0  0  0  0
 26 27  1  0  0  0  0
 26 45  1  0  0  0  0
 26 46  1  0  0  0  0
 27 28  2  0  0  0  0
 27 29  1  0  0  0  0
 29 30  1  0  0  0  0
 29 44  1  0  0  0  0
 30 31  1  0  0  0  0
 30 42  1  0  0  0  0
 30 43  1  0  0  0  0
 31 32  2  0  0  0  0
 31 35  1  0  0  0  0
 32 33  1  0  0  0  0
 32 41  1  0  0  0  0
 33 34  2  0  0  0  0
 33 40  1  0  0  0  0
 34 35  1  0  0  0  0
 35 36  1  0  0  0  0
 36 37  1  0  0  0  0
 36 38  1  0  0  0  0
 36 39  1  0  0  0  0
 47 48  2  0  0  0  0
 47 49  1  0  0  0  0
 49 50  2  0  0  0  0
 49 54  1  0  0  0  0
 50 51  1  0  0  0  0
 50 58  1  0  0  0  0
 51 52  2  0  0  0  0
 51 57  1  0  0  0  0
 52 53  1  0  0  0  0
 52 56  1  0  0  0  0
 53 54  2  0  0  0  0
 53 55  1  0  0  0  0
M  END
>  <MODEL>
       1

$$$$
best_conformers_8.pdb
 OpenBabel02042510453D

 66 71  0  0  1  0  0  0  0  0999 V2000
    6.9770   -3.6730   23.2360 C   0  0  0  0  0  0  0  0  0  0  0  0
    7.3670   -2.4840   22.3520 C   0  0  1  0  0  0  0  0  0  0  0  0
    6.3490   -2.2120   21.2300 C   0  0  0  0  0  0  0  0  0  0  0  0
    6.4570   -0.7850   20.9860 N   0  0  0  0  0  0  0  0  0  0  0  0
    5.8500   -0.1510   19.8680 C   0  0  0  0  0  0  0  0  0  0  0  0
    6.2580   -0.4560   18.5920 C   0  0  0  0  0  0  0  0  0  0  0  0
    5.7690    0.1170   17.4630 N   0  0  0  0  0  0  0  0  0  0  0  0
    4.8060    0.9980   17.6070 C   0  0  0  0  0  0  0  0  0  0  0  0
    4.2400    1.3660   18.8600 C   0  0  0  0  0  0  0  0  0  0  0  0
    3.1780    2.3100   18.9540 C   0  0  0  0  0  0  0  0  0  0  0  0
    2.6300    2.6220   20.1680 C   0  0  0  0  0  0  0  0  0  0  0  0
    3.1140    1.9980   21.3400 C   0  0  0  0  0  0  0  0  0  0  0  0
    4.1410    1.0910   21.2720 C   0  0  0  0  0  0  0  0  0  0  0  0
    4.7560    0.7650   20.0310 C   0  0  0  0  0  0  0  0  0  0  0  0
    4.5040    0.6240   22.1810 H   0  0  0  0  0  0  0  0  0  0  0  0
    2.6770    2.2490   22.3030 H   0  0  0  0  0  0  0  0  0  0  0  0
    1.8250    3.3510   20.2390 H   0  0  0  0  0  0  0  0  0  0  0  0
    2.8180    2.7780   18.0400 H   0  0  0  0  0  0  0  0  0  0  0  0
    4.4190    1.4610   16.7000 H   0  0  0  0  0  0  0  0  0  0  0  0
    7.0440   -1.1920   18.4250 H   0  0  0  0  0  0  0  0  0  0  0  0
    7.1150   -0.0960   21.9830 C   0  0  0  0  0  0  0  0  0  0  0  0
    7.2720    1.1100   21.9910 O   0  0  0  0  0  0  0  0  0  0  0  0
    7.5650   -1.0970   23.0680 C   0  0  1  0  0  0  0  0  0  0  0  0
    6.6600   -0.8760   24.3070 C   0  0  0  0  0  0  0  0  0  0  0  0
    7.1310   -1.6010   25.4760 N   0  0  0  0  0  0  0  0  0  0  0  0
    6.1670   -2.0770   26.4560 C   0  0  0  0  0  0  0  0  0  0  0  0
    5.7140   -0.9940   27.4480 C   0  0  0  0  0  0  0  0  0  0  0  0
    4.8810   -0.1420   27.1550 O   0  0  0  0  0  0  0  0  0  0  0  0
    6.2690   -1.0520   28.6840 N   0  0  0  0  0  0  0  0  0  0  0  0
    5.9430   -0.0110   29.6430 C   0  0  0  0  0  0  0  0  0  0  0  0
    4.5430   -0.1540   30.1770 C   0  0  0  0  0  0  0  0  0  0  0  0
    3.9890   -1.2410   30.8160 C   0  0  0  0  0  0  0  0  0  0  0  0
    2.6630   -0.8580   31.0930 C   0  0  0  0  0  0  0  0  0  0  0  0
    2.4170    0.3770   30.6650 N   0  0  0  0  0  0  0  0  0  0  0  0
    3.5720    0.7900   30.1180 N   0  0  0  0  0  0  0  0  0  0  0  0
    3.6740    2.1160   29.5430 C   0  0  0  0  0  0  0  0  0  0  0  0
    4.4100    2.7150   30.0960 H   0  0  0  0  0  0  0  0  0  0  0  0
    3.9730    2.0310   28.4920 H   0  0  0  0  0  0  0  0  0  0  0  0
    2.6850    2.5680   29.6390 H   0  0  0  0  0  0  0  0  0  0  0  0
    1.8730   -1.4240   31.5770 H   0  0  0  0  0  0  0  0  0  0  0  0
    4.5130   -2.1630   31.0310 H   0  0  0  0  0  0  0  0  0  0  0  0
    6.0890    0.9810   29.1900 H   0  0  0  0  0  0  0  0  0  0  0  0
    6.6460   -0.1140   30.4710 H   0  0  0  0  0  0  0  0  0  0  0  0
    6.9800   -1.7430   28.8850 H   0  0  0  0  0  0  0  0  0  0  0  0
    5.2660   -2.3950   25.9220 H   0  0  0  0  0  0  0  0  0  0  0  0
    6.6000   -2.9430   26.9710 H   0  0  0  0  0  0  0  0  0  0  0  0
    8.4480   -1.5950   25.8390 C   0  0  0  0  0  0  0  0  0  0  0  0
    8.8090   -2.0020   26.9320 O   0  0  0  0  0  0  0  0  0  0  0  0
    9.4170   -1.1100   24.8070 C   0  0  0  0  0  0  0  0  0  0  0  0
   10.7570   -0.9720   25.1650 C   0  0  0  0  0  0  0  0  0  0  0  0
   11.6990   -0.6080   24.2180 C   0  0  0  0  0  0  0  0  0  0  0  0
   11.3050   -0.3950   22.8960 C   0  0  0  0  0  0  0  0  0  0  0  0
    9.9740   -0.5390   22.5370 C   0  0  0  0  0  0  0  0  0  0  0  0
    9.0070   -0.8760   23.4910 C   0  0  0  0  0  0  0  0  0  0  0  0
    9.6720   -0.3770   21.5050 H   0  0  0  0  0  0  0  0  0  0  0  0
   12.0410   -0.1220   22.1480 H   0  0  0  0  0  0  0  0  0  0  0  0
   12.7430   -0.5040   24.4970 H   0  0  0  0  0  0  0  0  0  0  0  0
   11.0300   -1.1820   26.1930 H   0  0  0  0  0  0  0  0  0  0  0  0
    5.6350   -1.2080   24.0950 H   0  0  0  0  0  0  0  0  0  0  0  0
    6.6460    0.2050   24.5080 H   0  0  0  0  0  0  0  0  0  0  0  0
    5.3270   -2.4930   21.5320 H   0  0  0  0  0  0  0  0  0  0  0  0
    6.5660   -2.7530   20.3110 H   0  0  0  0  0  0  0  0  0  0  0  0
    8.3410   -2.7020   21.8900 H   0  0  0  0  0  0  0  0  0  0  0  0
    5.9920   -3.5200   23.6950 H   0  0  0  0  0  0  0  0  0  0  0  0
    6.9280   -4.5980   22.6500 H   0  0  0  0  0  0  0  0  0  0  0  0
    7.6970   -3.8190   24.0470 H   0  0  0  0  0  0  0  0  0  0  0  0
  1  2  1  0  0  0  0
  1 64  1  0  0  0  0
  1 65  1  0  0  0  0
  1 66  1  0  0  0  0
  2  3  1  0  0  0  0
  2 23  1  0  0  0  0
  2 63  1  6  0  0  0
  3  4  1  0  0  0  0
  3 61  1  0  0  0  0
  3 62  1  0  0  0  0
  4  5  1  0  0  0  0
  4 21  1  0  0  0  0
  5  6  2  0  0  0  0
  5 14  1  0  0  0  0
  6  7  1  0  0  0  0
  6 20  1  0  0  0  0
  7  8  2  0  0  0  0
  8  9  1  0  0  0  0
  8 19  1  0  0  0  0
  9 10  2  0  0  0  0
  9 14  1  0  0  0  0
 10 11  1  0  0  0  0
 10 18  1  0  0  0  0
 11 12  2  0  0  0  0
 11 17  1  0  0  0  0
 12 13  1  0  0  0  0
 12 16  1  0  0  0  0
 13 14  2  0  0  0  0
 13 15  1  0  0  0  0
 21 22  2  0  0  0  0
 23 21  1  6  0  0  0
 23 24  1  0  0  0  0
 23 54  1  0  0  0  0
 24 25  1  0  0  0  0
 24 59  1  0  0  0  0
 24 60  1  0  0  0  0
 25 26  1  0  0  0  0
 25 47  1  0  0  0  0
 26 27  1  0  0  0  0
 26 45  1  0  0  0  0
 26 46  1  0  0  0  0
 27 28  2  0  0  0  0
 27 29  1  0  0  0  0
 29 30  1  0  0  0  0
 29 44  1  0  0  0  0
 30 31  1  0  0  0  0
 30 42  1  0  0  0  0
 30 43  1  0  0  0  0
 31 32  2  0  0  0  0
 31 35  1  0  0  0  0
 32 33  1  0  0  0  0
 32 41  1  0  0  0  0
 33 34  2  0  0  0  0
 33 40  1  0  0  0  0
 34 35  1  0  0  0  0
 35 36  1  0  0  0  0
 36 37  1  0  0  0  0
 36 38  1  0  0  0  0
 36 39  1  0  0  0  0
 47 48  2  0  0  0  0
 47 49  1  0  0  0  0
 49 50  2  0  0  0  0
 49 54  1  0  0  0  0
 50 51  1  0  0  0  0
 50 58  1  0  0  0  0
 51 52  2  0  0  0  0
 51 57  1  0  0  0  0
 52 53  1  0  0  0  0
 52 56  1  0  0  0  0
 53 54  2  0  0  0  0
 53 55  1  0  0  0  0
M  END
>  <MODEL>
       2

$$$$
best_conformers_8.pdb
 OpenBabel02042510453D

 66 71  0  0  1  0  0  0  0  0999 V2000
    6.8780   -3.6630   23.2490 C   0  0  0  0  0  0  0  0  0  0  0  0
    7.2890   -2.4920   22.3630 C   0  0  1  0  0  0  0  0  0  0  0  0
    6.2800   -2.2060   21.2440 C   0  0  0  0  0  0  0  0  0  0  0  0
    6.4410   -0.7950   20.9800 N   0  0  0  0  0  0  0  0  0  0  0  0
    5.8390   -0.1560   19.8740 C   0  0  0  0  0  0  0  0  0  0  0  0
    6.2680   -0.4620   18.6060 C   0  0  0  0  0  0  0  0  0  0  0  0
    5.7900    0.1110   17.4740 N   0  0  0  0  0  0  0  0  0  0  0  0
    4.8210    0.9860   17.6140 C   0  0  0  0  0  0  0  0  0  0  0  0
    4.2540    1.3570   18.8670 C   0  0  0  0  0  0  0  0  0  0  0  0
    3.1930    2.2980   18.9520 C   0  0  0  0  0  0  0  0  0  0  0  0
    2.6360    2.6130   20.1600 C   0  0  0  0  0  0  0  0  0  0  0  0
    3.1090    1.9980   21.3410 C   0  0  0  0  0  0  0  0  0  0  0  0
    4.1370    1.0920   21.2880 C   0  0  0  0  0  0  0  0  0  0  0  0
    4.7560    0.7650   20.0450 C   0  0  0  0  0  0  0  0  0  0  0  0
    4.4910    0.6330   22.2060 H   0  0  0  0  0  0  0  0  0  0  0  0
    2.6610    2.2500   22.2980 H   0  0  0  0  0  0  0  0  0  0  0  0
    1.8320    3.3420   20.2240 H   0  0  0  0  0  0  0  0  0  0  0  0
    2.8400    2.7630   18.0360 H   0  0  0  0  0  0  0  0  0  0  0  0
    4.4290    1.4460   16.7060 H   0  0  0  0  0  0  0  0  0  0  0  0
    7.0610   -1.1970   18.4620 H   0  0  0  0  0  0  0  0  0  0  0  0
    7.0890   -0.1130   21.9810 C   0  0  0  0  0  0  0  0  0  0  0  0
    7.2710    1.0870   21.9740 O   0  0  0  0  0  0  0  0  0  0  0  0
    7.5000   -1.1100   23.0780 C   0  0  1  0  0  0  0  0  0  0  0  0
    6.5940   -0.8430   24.3010 C   0  0  0  0  0  0  0  0  0  0  0  0
    7.0250   -1.5450   25.4950 N   0  0  0  0  0  0  0  0  0  0  0  0
    6.0470   -2.0430   26.4390 C   0  0  0  0  0  0  0  0  0  0  0  0
    5.5890   -0.9950   27.4440 C   0  0  0  0  0  0  0  0  0  0  0  0
    4.8090   -0.1100   27.1380 O   0  0  0  0  0  0  0  0  0  0  0  0
    6.0740   -1.1320   28.7170 N   0  0  0  0  0  0  0  0  0  0  0  0
    5.7460   -0.0440   29.6430 C   0  0  0  0  0  0  0  0  0  0  0  0
    6.4700   -0.1080   30.9480 C   0  0  0  0  0  0  0  0  0  0  0  0
    7.5490    0.6270   31.3960 C   0  0  0  0  0  0  0  0  0  0  0  0
    7.9880   -0.0570   32.5490 C   0  0  0  0  0  0  0  0  0  0  0  0
    7.1810   -1.0630   32.8520 N   0  0  0  0  0  0  0  0  0  0  0  0
    6.2640   -1.0750   31.8760 N   0  0  0  0  0  0  0  0  0  0  0  0
    5.1290   -1.9500   31.9890 C   0  0  0  0  0  0  0  0  0  0  0  0
    4.2140   -1.3700   32.1030 H   0  0  0  0  0  0  0  0  0  0  0  0
    5.0460   -2.5840   31.1080 H   0  0  0  0  0  0  0  0  0  0  0  0
    5.2700   -2.5600   32.8770 H   0  0  0  0  0  0  0  0  0  0  0  0
    8.8540    0.1390   33.1690 H   0  0  0  0  0  0  0  0  0  0  0  0
    7.9890    1.4800   30.8890 H   0  0  0  0  0  0  0  0  0  0  0  0
    5.9940    0.9130   29.1760 H   0  0  0  0  0  0  0  0  0  0  0  0
    4.6570   -0.0330   29.7720 H   0  0  0  0  0  0  0  0  0  0  0  0
    6.9480   -1.6310   28.8110 H   0  0  0  0  0  0  0  0  0  0  0  0
    5.1560   -2.3560   25.8900 H   0  0  0  0  0  0  0  0  0  0  0  0
    6.4990   -2.8860   26.9590 H   0  0  0  0  0  0  0  0  0  0  0  0
    8.3360   -1.6210   25.8560 C   0  0  0  0  0  0  0  0  0  0  0  0
    8.6900   -2.0830   26.9370 O   0  0  0  0  0  0  0  0  0  0  0  0
    9.3220   -1.1510   24.8420 C   0  0  0  0  0  0  0  0  0  0  0  0
   10.6530   -1.0360   25.2400 C   0  0  0  0  0  0  0  0  0  0  0  0
   11.6200   -0.6880   24.3100 C   0  0  0  0  0  0  0  0  0  0  0  0
   11.2540   -0.4760   22.9760 C   0  0  0  0  0  0  0  0  0  0  0  0
    9.9250   -0.5880   22.5880 C   0  0  0  0  0  0  0  0  0  0  0  0
    8.9340   -0.9120   23.5200 C   0  0  0  0  0  0  0  0  0  0  0  0
    9.6470   -0.4310   21.5490 H   0  0  0  0  0  0  0  0  0  0  0  0
   12.0150   -0.2350   22.2360 H   0  0  0  0  0  0  0  0  0  0  0  0
   12.6620   -0.6070   24.6110 H   0  0  0  0  0  0  0  0  0  0  0  0
   10.8850   -1.2370   26.2840 H   0  0  0  0  0  0  0  0  0  0  0  0
    6.5930    0.2380   24.4850 H   0  0  0  0  0  0  0  0  0  0  0  0
    5.5690   -1.1510   24.0800 H   0  0  0  0  0  0  0  0  0  0  0  0
    6.4620   -2.7700   20.3310 H   0  0  0  0  0  0  0  0  0  0  0  0
    5.2520   -2.4270   21.5590 H   0  0  0  0  0  0  0  0  0  0  0  0
    8.2560   -2.7270   21.8940 H   0  0  0  0  0  0  0  0  0  0  0  0
    5.8920   -3.4950   23.6960 H   0  0  0  0  0  0  0  0  0  0  0  0
    6.8130   -4.5890   22.6710 H   0  0  0  0  0  0  0  0  0  0  0  0
    7.5910   -3.8230   24.0620 H   0  0  0  0  0  0  0  0  0  0  0  0
  1  2  1  0  0  0  0
  1 64  1  0  0  0  0
  1 65  1  0  0  0  0
  1 66  1  0  0  0  0
  2  3  1  0  0  0  0
  2 23  1  0  0  0  0
  2 63  1  6  0  0  0
  3  4  1  0  0  0  0
  3 61  1  0  0  0  0
  3 62  1  0  0  0  0
  4  5  1  0  0  0  0
  4 21  1  0  0  0  0
  5  6  2  0  0  0  0
  5 14  1  0  0  0  0
  6  7  1  0  0  0  0
  6 20  1  0  0  0  0
  7  8  2  0  0  0  0
  8  9  1  0  0  0  0
  8 19  1  0  0  0  0
  9 10  2  0  0  0  0
  9 14  1  0  0  0  0
 10 11  1  0  0  0  0
 10 18  1  0  0  0  0
 11 12  2  0  0  0  0
 11 17  1  0  0  0  0
 12 13  1  0  0  0  0
 12 16  1  0  0  0  0
 13 14  2  0  0  0  0
 13 15  1  0  0  0  0
 21 22  2  0  0  0  0
 23 21  1  6  0  0  0
 23 24  1  0  0  0  0
 23 54  1  0  0  0  0
 24 25  1  0  0  0  0
 24 59  1  0  0  0  0
 24 60  1  0  0  0  0
 25 26  1  0  0  0  0
 25 47  1  0  0  0  0
 26 27  1  0  0  0  0
 26 45  1  0  0  0  0
 26 46  1  0  0  0  0
 27 28  2  0  0  0  0
 27 29  1  0  0  0  0
 29 30  1  0  0  0  0
 29 44  1  0  0  0  0
 30 31  1  0  0  0  0
 30 42  1  0  0  0  0
 30 43  1  0  0  0  0
 31 32  2  0  0  0  0
 31 35  1  0  0  0  0
 32 33  1  0  0  0  0
 32 41  1  0  0  0  0
 33 34  2  0  0  0  0
 33 40  1  0  0  0  0
 34 35  1  0  0  0  0
 35 36  1  0  0  0  0
 36 37  1  0  0  0  0
 36 38  1  0  0  0  0
 36 39  1  0  0  0  0
 47 48  2  0  0  0  0
 47 49  1  0  0  0  0
 49 50  2  0  0  0  0
 49 54  1  0  0  0  0
 50 51  1  0  0  0  0
 50 58  1  0  0  0  0
 51 52  2  0  0  0  0
 51 57  1  0  0  0  0
 52 53  1  0  0  0  0
 52 56  1  0  0  0  0
 53 54  2  0  0  0  0
 53 55  1  0  0  0  0
M  END
>  <MODEL>
       3

$$$$
