best_conformers_80.pdb
 OpenBabel02042510453D

 59 64  0  0  1  0  0  0  0  0999 V2000
    8.9870   -2.6970   22.1630 C   0  0  0  0  0  0  0  0  0  0  0  0
    7.9730   -1.6170   22.5770 C   0  0  1  0  0  0  0  0  0  0  0  0
    7.7440   -0.6180   21.4150 C   0  0  0  0  0  0  0  0  0  0  0  0
    6.3920   -0.8790   20.9600 N   0  0  0  0  0  0  0  0  0  0  0  0
    5.7990   -0.2100   19.8550 C   0  0  0  0  0  0  0  0  0  0  0  0
    6.2580   -0.4580   18.5870 C   0  0  0  0  0  0  0  0  0  0  0  0
    5.7830    0.1300   17.4610 N   0  0  0  0  0  0  0  0  0  0  0  0
    4.8080    0.9990   17.6080 C   0  0  0  0  0  0  0  0  0  0  0  0
    4.2390    1.3600   18.8620 C   0  0  0  0  0  0  0  0  0  0  0  0
    3.1920    2.3200   18.9570 C   0  0  0  0  0  0  0  0  0  0  0  0
    2.6800    2.6680   20.1750 C   0  0  0  0  0  0  0  0  0  0  0  0
    3.1990    2.0840   21.3530 C   0  0  0  0  0  0  0  0  0  0  0  0
    4.2090    1.1580   21.2910 C   0  0  0  0  0  0  0  0  0  0  0  0
    4.7490    0.7530   20.0340 C   0  0  0  0  0  0  0  0  0  0  0  0
    4.6000    0.7210   22.2090 H   0  0  0  0  0  0  0  0  0  0  0  0
    2.7860    2.3700   22.3170 H   0  0  0  0  0  0  0  0  0  0  0  0
    1.8770    3.4000   20.2470 H   0  0  0  0  0  0  0  0  0  0  0  0
    2.8180    2.7730   18.0410 H   0  0  0  0  0  0  0  0  0  0  0  0
    4.4160    1.4600   16.7000 H   0  0  0  0  0  0  0  0  0  0  0  0
    7.0510   -1.1890   18.4310 H   0  0  0  0  0  0  0  0  0  0  0  0
    5.6820   -1.7440   21.7570 C   0  0  0  0  0  0  0  0  0  0  0  0
    4.5530   -2.1280   21.5230 O   0  0  0  0  0  0  0  0  0  0  0  0
    6.5430   -2.1250   22.9780 C   0  0  1  0  0  0  0  0  0  0  0  0
    6.4740   -3.6500   23.2170 C   0  0  0  0  0  0  0  0  0  0  0  0
    5.1690   -4.0840   23.6860 N   0  0  0  0  0  0  0  0  0  0  0  0
    4.5490   -5.2230   23.0230 C   0  0  0  0  0  0  0  0  0  0  0  0
    5.3670   -6.4810   23.0890 C   0  0  0  0  0  0  0  0  0  0  0  0
    6.1450   -7.0980   22.1290 C   0  0  0  0  0  0  0  0  0  0  0  0
    6.7540   -8.1770   22.7990 C   0  0  0  0  0  0  0  0  0  0  0  0
    6.3750   -8.2360   24.0680 N   0  0  0  0  0  0  0  0  0  0  0  0
    5.5290   -7.2050   24.2260 N   0  0  0  0  0  0  0  0  0  0  0  0
    4.9510   -6.9500   25.5270 C   0  0  0  0  0  0  0  0  0  0  0  0
    5.4070   -6.0660   25.9860 H   0  0  0  0  0  0  0  0  0  0  0  0
    3.8720   -6.7870   25.4430 H   0  0  0  0  0  0  0  0  0  0  0  0
    5.1530   -7.8320   26.1380 H   0  0  0  0  0  0  0  0  0  0  0  0
    7.4520   -8.9170   22.4260 H   0  0  0  0  0  0  0  0  0  0  0  0
    6.2470   -6.7820   21.0960 H   0  0  0  0  0  0  0  0  0  0  0  0
    3.5630   -5.3440   23.4800 H   0  0  0  0  0  0  0  0  0  0  0  0
    4.4050   -4.9620   21.9650 H   0  0  0  0  0  0  0  0  0  0  0  0
    4.5320   -3.4570   24.7140 C   0  0  0  0  0  0  0  0  0  0  0  0
    3.5960   -3.9620   25.3260 O   0  0  0  0  0  0  0  0  0  0  0  0
    5.0400   -2.0850   25.0410 C   0  0  0  0  0  0  0  0  0  0  0  0
    4.4940   -1.4480   26.1550 C   0  0  0  0  0  0  0  0  0  0  0  0
    4.8420   -0.1460   26.4570 C   0  0  0  0  0  0  0  0  0  0  0  0
    5.7310    0.5070   25.6120 C   0  0  0  0  0  0  0  0  0  0  0  0
    6.0520    1.7840   25.8850 F   0  0  0  0  0  0  0  0  0  0  0  0
    6.2930   -0.1030   24.5070 C   0  0  0  0  0  0  0  0  0  0  0  0
    5.9740   -1.4360   24.2190 C   0  0  0  0  0  0  0  0  0  0  0  0
    6.9640    0.4860   23.8890 H   0  0  0  0  0  0  0  0  0  0  0  0
    4.4310    0.3850   27.3070 H   0  0  0  0  0  0  0  0  0  0  0  0
    3.7790   -2.0030   26.7530 H   0  0  0  0  0  0  0  0  0  0  0  0
    6.6680   -4.1680   22.2780 H   0  0  0  0  0  0  0  0  0  0  0  0
    7.2370   -3.9310   23.9570 H   0  0  0  0  0  0  0  0  0  0  0  0
    7.8560    0.4280   21.7360 H   0  0  0  0  0  0  0  0  0  0  0  0
    8.4580   -0.7760   20.5980 H   0  0  0  0  0  0  0  0  0  0  0  0
    8.4100   -1.1040   23.4420 H   0  0  0  0  0  0  0  0  0  0  0  0
    9.9390   -2.2320   21.8850 H   0  0  0  0  0  0  0  0  0  0  0  0
    8.6390   -3.2730   21.3020 H   0  0  0  0  0  0  0  0  0  0  0  0
    9.1970   -3.3970   22.9770 H   0  0  0  0  0  0  0  0  0  0  0  0
  1  2  1  0  0  0  0
  1 57  1  0  0  0  0
  1 58  1  0  0  0  0
  1 59  1  0  0  0  0
  2  3  1  0  0  0  0
  2 23  1  0  0  0  0
  2 56  1  1  0  0  0
  3  4  1  0  0  0  0
  3 54  1  0  0  0  0
  3 55  1  0  0  0  0
  4  5  1  0  0  0  0
  4 21  1  0  0  0  0
  5  6  2  0  0  0  0
  5 14  1  0  0  0  0
  6  7  1  0  0  0  0
  6 20  1  0  0  0  0
  7  8  2  0  0  0  0
  8  9  1  0  0  0  0
  8 19  1  0  0  0  0
  9 10  2  0  0  0  0
  9 14  1  0  0  0  0
 10 11  1  0  0  0  0
 10 18  1  0  0  0  0
 11 12  2  0  0  0  0
 11 17  1  0  0  0  0
 12 13  1  0  0  0  0
 12 16  1  0  0  0  0
 13 14  2  0  0  0  0
 13 15  1  0  0  0  0
 21 22  2  0  0  0  0
 23 21  1  6  0  0  0
 23 24  1  0  0  0  0
 23 48  1  0  0  0  0
 24 25  1  0  0  0  0
 24 52  1  0  0  0  0
 24 53  1  0  0  0  0
 25 26  1  0  0  0  0
 25 40  1  0  0  0  0
 26 27  1  0  0  0  0
 26 38  1  0  0  0  0
 26 39  1  0  0  0  0
 27 28  2  0  0  0  0
 27 31  1  0  0  0  0
 28 29  1  0  0  0  0
 28 37  1  0  0  0  0
 29 30  2  0  0  0  0
 29 36  1  0  0  0  0
 30 31  1  0  0  0  0
 31 32  1  0  0  0  0
 32 33  1  0  0  0  0
 32 34  1  0  0  0  0
 32 35  1  0  0  0  0
 40 41  2  0  0  0  0
 40 42  1  0  0  0  0
 42 43  2  0  0  0  0
 42 48  1  0  0  0  0
 43 44  1  0  0  0  0
 43 51  1  0  0  0  0
 44 45  2  0  0  0  0
 44 50  1  0  0  0  0
 45 46  1  0  0  0  0
 45 47  1  0  0  0  0
 47 48  2  0  0  0  0
 47 49  1  0  0  0  0
M  END
>  <MODEL>
       1

$$$$
best_conformers_80.pdb
 OpenBabel02042510453D

 59 64  0  0  1  0  0  0  0  0999 V2000
    8.9970   -2.6990   22.1620 C   0  0  0  0  0  0  0  0  0  0  0  0
    7.9800   -1.6160   22.5770 C   0  0  1  0  0  0  0  0  0  0  0  0
    7.7500   -0.6190   21.4110 C   0  0  0  0  0  0  0  0  0  0  0  0
    6.3950   -0.8750   20.9610 N   0  0  0  0  0  0  0  0  0  0  0  0
    5.8000   -0.2080   19.8550 C   0  0  0  0  0  0  0  0  0  0  0  0
    6.2510   -0.4600   18.5820 C   0  0  0  0  0  0  0  0  0  0  0  0
    5.7780    0.1350   17.4600 N   0  0  0  0  0  0  0  0  0  0  0  0
    4.8030    1.0020   17.6040 C   0  0  0  0  0  0  0  0  0  0  0  0
    4.2370    1.3670   18.8590 C   0  0  0  0  0  0  0  0  0  0  0  0
    3.1890    2.3240   18.9540 C   0  0  0  0  0  0  0  0  0  0  0  0
    2.6740    2.6710   20.1750 C   0  0  0  0  0  0  0  0  0  0  0  0
    3.1970    2.0850   21.3540 C   0  0  0  0  0  0  0  0  0  0  0  0
    4.2150    1.1620   21.2860 C   0  0  0  0  0  0  0  0  0  0  0  0
    4.7490    0.7570   20.0270 C   0  0  0  0  0  0  0  0  0  0  0  0
    4.6030    0.7190   22.2030 H   0  0  0  0  0  0  0  0  0  0  0  0
    2.7850    2.3680   22.3190 H   0  0  0  0  0  0  0  0  0  0  0  0
    1.8730    3.4030   20.2490 H   0  0  0  0  0  0  0  0  0  0  0  0
    2.8120    2.7790   18.0400 H   0  0  0  0  0  0  0  0  0  0  0  0
    4.4140    1.4620   16.6980 H   0  0  0  0  0  0  0  0  0  0  0  0
    7.0440   -1.1890   18.4250 H   0  0  0  0  0  0  0  0  0  0  0  0
    5.6870   -1.7390   21.7660 C   0  0  0  0  0  0  0  0  0  0  0  0
    4.5520   -2.1120   21.5420 O   0  0  0  0  0  0  0  0  0  0  0  0
    6.5580   -2.1260   22.9790 C   0  0  1  0  0  0  0  0  0  0  0  0
    6.4880   -3.6510   23.2040 C   0  0  0  0  0  0  0  0  0  0  0  0
    5.1670   -4.0560   23.6240 N   0  0  0  0  0  0  0  0  0  0  0  0
    4.5470   -5.2320   23.0330 C   0  0  0  0  0  0  0  0  0  0  0  0
    4.7290   -6.5100   23.8010 C   0  0  0  0  0  0  0  0  0  0  0  0
    3.8850   -7.0820   24.7280 C   0  0  0  0  0  0  0  0  0  0  0  0
    4.5770   -8.2100   25.2000 C   0  0  0  0  0  0  0  0  0  0  0  0
    5.7500   -8.3410   24.5900 N   0  0  0  0  0  0  0  0  0  0  0  0
    5.8180   -7.3130   23.7290 N   0  0  0  0  0  0  0  0  0  0  0  0
    7.0040   -7.1430   22.9140 C   0  0  0  0  0  0  0  0  0  0  0  0
    6.7180   -6.8520   21.8980 H   0  0  0  0  0  0  0  0  0  0  0  0
    7.5190   -8.1040   22.8920 H   0  0  0  0  0  0  0  0  0  0  0  0
    7.6680   -6.3800   23.3410 H   0  0  0  0  0  0  0  0  0  0  0  0
    4.2990   -8.9190   25.9720 H   0  0  0  0  0  0  0  0  0  0  0  0
    2.9390   -6.6620   25.0410 H   0  0  0  0  0  0  0  0  0  0  0  0
    4.9160   -5.3070   22.0010 H   0  0  0  0  0  0  0  0  0  0  0  0
    3.4730   -5.0360   22.9730 H   0  0  0  0  0  0  0  0  0  0  0  0
    4.5550   -3.4610   24.6920 C   0  0  0  0  0  0  0  0  0  0  0  0
    3.6310   -4.0000   25.2900 O   0  0  0  0  0  0  0  0  0  0  0  0
    5.0680   -2.1000   25.0480 C   0  0  0  0  0  0  0  0  0  0  0  0
    4.5250   -1.4650   26.1670 C   0  0  0  0  0  0  0  0  0  0  0  0
    4.8600   -0.1600   26.4680 C   0  0  0  0  0  0  0  0  0  0  0  0
    5.7370    0.4960   25.6150 C   0  0  0  0  0  0  0  0  0  0  0  0
    6.0500    1.7750   25.8850 F   0  0  0  0  0  0  0  0  0  0  0  0
    6.2990   -0.1100   24.5080 C   0  0  0  0  0  0  0  0  0  0  0  0
    5.9980   -1.4480   24.2270 C   0  0  0  0  0  0  0  0  0  0  0  0
    6.9530    0.4890   23.8820 H   0  0  0  0  0  0  0  0  0  0  0  0
    4.4540    0.3710   27.3230 H   0  0  0  0  0  0  0  0  0  0  0  0
    3.8150   -2.0110   26.7750 H   0  0  0  0  0  0  0  0  0  0  0  0
    6.7090   -4.1690   22.2710 H   0  0  0  0  0  0  0  0  0  0  0  0
    7.2330   -3.9400   23.9630 H   0  0  0  0  0  0  0  0  0  0  0  0
    8.4620   -0.7830   20.5930 H   0  0  0  0  0  0  0  0  0  0  0  0
    7.8740    0.4270   21.7330 H   0  0  0  0  0  0  0  0  0  0  0  0
    8.4260   -1.1010   23.4380 H   0  0  0  0  0  0  0  0  0  0  0  0
    9.2040   -3.4050   22.9750 H   0  0  0  0  0  0  0  0  0  0  0  0
    9.9530   -2.2350   21.8810 H   0  0  0  0  0  0  0  0  0  0  0  0
    8.6470   -3.2800   21.3010 H   0  0  0  0  0  0  0  0  0  0  0  0
  1  2  1  0  0  0  0
  1 57  1  0  0  0  0
  1 58  1  0  0  0  0
  1 59  1  0  0  0  0
  2  3  1  0  0  0  0
  2 23  1  0  0  0  0
  2 56  1  1  0  0  0
  3  4  1  0  0  0  0
  3 54  1  0  0  0  0
  3 55  1  0  0  0  0
  4  5  1  0  0  0  0
  4 21  1  0  0  0  0
  5  6  2  0  0  0  0
  5 14  1  0  0  0  0
  6  7  1  0  0  0  0
  6 20  1  0  0  0  0
  7  8  2  0  0  0  0
  8  9  1  0  0  0  0
  8 19  1  0  0  0  0
  9 10  2  0  0  0  0
  9 14  1  0  0  0  0
 10 11  1  0  0  0  0
 10 18  1  0  0  0  0
 11 12  2  0  0  0  0
 11 17  1  0  0  0  0
 12 13  1  0  0  0  0
 12 16  1  0  0  0  0
 13 14  2  0  0  0  0
 13 15  1  0  0  0  0
 21 22  2  0  0  0  0
 23 21  1  6  0  0  0
 23 24  1  0  0  0  0
 23 48  1  0  0  0  0
 24 25  1  0  0  0  0
 24 52  1  0  0  0  0
 24 53  1  0  0  0  0
 25 26  1  0  0  0  0
 25 40  1  0  0  0  0
 26 27  1  0  0  0  0
 26 38  1  0  0  0  0
 26 39  1  0  0  0  0
 27 28  2  0  0  0  0
 27 31  1  0  0  0  0
 28 29  1  0  0  0  0
 28 37  1  0  0  0  0
 29 30  2  0  0  0  0
 29 36  1  0  0  0  0
 30 31  1  0  0  0  0
 31 32  1  0  0  0  0
 32 33  1  0  0  0  0
 32 34  1  0  0  0  0
 32 35  1  0  0  0  0
 40 41  2  0  0  0  0
 40 42  1  0  0  0  0
 42 43  2  0  0  0  0
 42 48  1  0  0  0  0
 43 44  1  0  0  0  0
 43 51  1  0  0  0  0
 44 45  2  0  0  0  0
 44 50  1  0  0  0  0
 45 46  1  0  0  0  0
 45 47  1  0  0  0  0
 47 48  2  0  0  0  0
 47 49  1  0  0  0  0
M  END
>  <MODEL>
       2

$$$$
