best_conformers_64.pdb
 OpenBabel02042510453D

 66 71  0  0  1  0  0  0  0  0999 V2000
    6.7990   -3.6200   23.3320 C   0  0  0  0  0  0  0  0  0  0  0  0
    7.2630   -2.4700   22.4300 C   0  0  1  0  0  0  0  0  0  0  0  0
    6.2970   -2.2030   21.2620 C   0  0  0  0  0  0  0  0  0  0  0  0
    6.4590   -0.7870   20.9810 N   0  0  0  0  0  0  0  0  0  0  0  0
    5.8500   -0.1500   19.8670 C   0  0  0  0  0  0  0  0  0  0  0  0
    6.2580   -0.4560   18.5930 C   0  0  0  0  0  0  0  0  0  0  0  0
    5.7680    0.1150   17.4650 N   0  0  0  0  0  0  0  0  0  0  0  0
    4.8060    0.9970   17.6100 C   0  0  0  0  0  0  0  0  0  0  0  0
    4.2400    1.3670   18.8590 C   0  0  0  0  0  0  0  0  0  0  0  0
    3.1790    2.3100   18.9540 C   0  0  0  0  0  0  0  0  0  0  0  0
    2.6300    2.6240   20.1680 C   0  0  0  0  0  0  0  0  0  0  0  0
    3.1130    1.9980   21.3410 C   0  0  0  0  0  0  0  0  0  0  0  0
    4.1410    1.0910   21.2730 C   0  0  0  0  0  0  0  0  0  0  0  0
    4.7560    0.7660   20.0320 C   0  0  0  0  0  0  0  0  0  0  0  0
    4.5010    0.6230   22.1830 H   0  0  0  0  0  0  0  0  0  0  0  0
    2.6760    2.2520   22.3040 H   0  0  0  0  0  0  0  0  0  0  0  0
    1.8250    3.3540   20.2390 H   0  0  0  0  0  0  0  0  0  0  0  0
    2.8200    2.7790   18.0400 H   0  0  0  0  0  0  0  0  0  0  0  0
    4.4200    1.4590   16.7020 H   0  0  0  0  0  0  0  0  0  0  0  0
    7.0420   -1.1950   18.4310 H   0  0  0  0  0  0  0  0  0  0  0  0
    7.1020   -0.0880   21.9830 C   0  0  0  0  0  0  0  0  0  0  0  0
    7.2830    1.1140   21.9720 O   0  0  0  0  0  0  0  0  0  0  0  0
    7.4800   -1.0680   23.1050 C   0  0  1  0  0  0  0  0  0  0  0  0
    6.5330   -0.7770   24.2920 C   0  0  0  0  0  0  0  0  0  0  0  0
    6.9220   -1.4670   25.5070 N   0  0  0  0  0  0  0  0  0  0  0  0
    5.8770   -1.9320   26.4070 C   0  0  0  0  0  0  0  0  0  0  0  0
    5.1200   -0.8260   27.1520 C   0  0  0  0  0  0  0  0  0  0  0  0
    5.9510   -0.1690   28.2290 N   0  3  0  0  0  0  0  0  0  0  0  0
    6.6670    1.0840   27.7420 C   0  0  0  0  0  0  0  0  0  0  0  0
    5.7320    2.2850   27.6260 C   0  0  0  0  0  0  0  0  0  0  0  0
    5.0460    2.5410   28.8350 O   0  0  0  0  0  0  0  0  0  0  0  0
    4.2700    1.4200   29.2160 C   0  0  0  0  0  0  0  0  0  0  0  0
    5.1500    0.1960   29.4640 C   0  0  0  0  0  0  0  0  0  0  0  0
    4.5380   -0.6620   29.7620 H   0  0  0  0  0  0  0  0  0  0  0  0
    5.8570    0.4210   30.2640 H   0  0  0  0  0  0  0  0  0  0  0  0
    3.5230    1.1850   28.4380 H   0  0  0  0  0  0  0  0  0  0  0  0
    3.7380    1.7130   30.1260 H   0  0  0  0  0  0  0  0  0  0  0  0
    5.0190    2.1210   26.8010 H   0  0  0  0  0  0  0  0  0  0  0  0
    6.3090    3.1880   27.4070 H   0  0  0  0  0  0  0  0  0  0  0  0
    7.4550    1.3040   28.4630 H   0  0  0  0  0  0  0  0  0  0  0  0
    7.1120    0.8530   26.7720 H   0  0  0  0  0  0  0  0  0  0  0  0
    6.6930   -0.8520   28.4830 H   0  0  0  0  0  0  0  0  0  0  0  0
    4.2420   -1.2570   27.6420 H   0  0  0  0  0  0  0  0  0  0  0  0
    4.7770   -0.0680   26.4410 H   0  0  0  0  0  0  0  0  0  0  0  0
    5.1500   -2.5120   25.8220 H   0  0  0  0  0  0  0  0  0  0  0  0
    6.3560   -2.5830   27.1410 H   0  0  0  0  0  0  0  0  0  0  0  0
    8.2300   -1.5470   25.8990 C   0  0  0  0  0  0  0  0  0  0  0  0
    8.5410   -1.9680   27.0010 O   0  0  0  0  0  0  0  0  0  0  0  0
    9.2620   -1.1070   24.9060 C   0  0  0  0  0  0  0  0  0  0  0  0
   10.5930   -1.0020   25.3110 C   0  0  0  0  0  0  0  0  0  0  0  0
   11.5860   -0.6910   24.3990 C   0  0  0  0  0  0  0  0  0  0  0  0
   11.2330   -0.5000   23.0640 C   0  0  0  0  0  0  0  0  0  0  0  0
   12.4800   -0.1240   21.9120 Cl  0  0  0  0  0  0  0  0  0  0  0  0
    9.9190   -0.6060   22.6430 C   0  0  0  0  0  0  0  0  0  0  0  0
    8.9100   -0.8850   23.5710 C   0  0  0  0  0  0  0  0  0  0  0  0
    9.6800   -0.4570   21.5960 H   0  0  0  0  0  0  0  0  0  0  0  0
   12.6280   -0.6110   24.6910 H   0  0  0  0  0  0  0  0  0  0  0  0
   10.8320   -1.1990   26.3490 H   0  0  0  0  0  0  0  0  0  0  0  0
    5.5090   -1.0950   24.0520 H   0  0  0  0  0  0  0  0  0  0  0  0
    6.5430    0.3160   24.4470 H   0  0  0  0  0  0  0  0  0  0  0  0
    5.2560   -2.4430   21.5340 H   0  0  0  0  0  0  0  0  0  0  0  0
    6.5370   -2.7850   20.3720 H   0  0  0  0  0  0  0  0  0  0  0  0
    8.2460   -2.7350   22.0130 H   0  0  0  0  0  0  0  0  0  0  0  0
    5.7940   -3.4300   23.7340 H   0  0  0  0  0  0  0  0  0  0  0  0
    7.4730   -3.7560   24.1850 H   0  0  0  0  0  0  0  0  0  0  0  0
    6.7560   -4.5650   22.7750 H   0  0  0  0  0  0  0  0  0  0  0  0
  1  2  1  0  0  0  0
  1 64  1  0  0  0  0
  1 65  1  0  0  0  0
  1 66  1  0  0  0  0
  2  3  1  0  0  0  0
  2 23  1  0  0  0  0
  2 63  1  6  0  0  0
  3  4  1  0  0  0  0
  3 61  1  0  0  0  0
  3 62  1  0  0  0  0
  4  5  1  0  0  0  0
  4 21  1  0  0  0  0
  5  6  2  0  0  0  0
  5 14  1  0  0  0  0
  6  7  1  0  0  0  0
  6 20  1  0  0  0  0
  7  8  2  0  0  0  0
  8  9  1  0  0  0  0
  8 19  1  0  0  0  0
  9 10  2  0  0  0  0
  9 14  1  0  0  0  0
 10 11  1  0  0  0  0
 10 18  1  0  0  0  0
 11 12  2  0  0  0  0
 11 17  1  0  0  0  0
 12 13  1  0  0  0  0
 12 16  1  0  0  0  0
 13 14  2  0  0  0  0
 13 15  1  0  0  0  0
 21 22  2  0  0  0  0
 23 21  1  6  0  0  0
 23 24  1  0  0  0  0
 23 55  1  0  0  0  0
 24 25  1  0  0  0  0
 24 59  1  0  0  0  0
 24 60  1  0  0  0  0
 25 26  1  0  0  0  0
 25 47  1  0  0  0  0
 26 27  1  0  0  0  0
 26 45  1  0  0  0  0
 26 46  1  0  0  0  0
 27 28  1  0  0  0  0
 27 43  1  0  0  0  0
 27 44  1  0  0  0  0
 28 29  1  0  0  0  0
 28 33  1  0  0  0  0
 28 42  1  0  0  0  0
 29 30  1  0  0  0  0
 29 40  1  0  0  0  0
 29 41  1  0  0  0  0
 30 31  1  0  0  0  0
 30 38  1  0  0  0  0
 30 39  1  0  0  0  0
 31 32  1  0  0  0  0
 32 33  1  0  0  0  0
 32 36  1  0  0  0  0
 32 37  1  0  0  0  0
 33 34  1  0  0  0  0
 33 35  1  0  0  0  0
 47 48  2  0  0  0  0
 47 49  1  0  0  0  0
 49 50  2  0  0  0  0
 49 55  1  0  0  0  0
 50 51  1  0  0  0  0
 50 58  1  0  0  0  0
 51 52  2  0  0  0  0
 51 57  1  0  0  0  0
 52 53  1  0  0  0  0
 52 54  1  0  0  0  0
 54 55  2  0  0  0  0
 54 56  1  0  0  0  0
M  CHG  1  28   1
M  END
>  <MODEL>
       1

$$$$
best_conformers_64.pdb
 OpenBabel02042510453D

 66 71  0  0  1  0  0  0  0  0999 V2000
    6.7380   -3.6200   23.3430 C   0  0  0  0  0  0  0  0  0  0  0  0
    7.2220   -2.4830   22.4380 C   0  0  1  0  0  0  0  0  0  0  0  0
    6.2670   -2.2060   21.2650 C   0  0  0  0  0  0  0  0  0  0  0  0
    6.4530   -0.7940   20.9780 N   0  0  0  0  0  0  0  0  0  0  0  0
    5.8470   -0.1530   19.8670 C   0  0  0  0  0  0  0  0  0  0  0  0
    6.2590   -0.4580   18.5930 C   0  0  0  0  0  0  0  0  0  0  0  0
    5.7710    0.1150   17.4650 N   0  0  0  0  0  0  0  0  0  0  0  0
    4.8080    0.9960   17.6100 C   0  0  0  0  0  0  0  0  0  0  0  0
    4.2420    1.3650   18.8630 C   0  0  0  0  0  0  0  0  0  0  0  0
    3.1790    2.3090   18.9550 C   0  0  0  0  0  0  0  0  0  0  0  0
    2.6300    2.6200   20.1670 C   0  0  0  0  0  0  0  0  0  0  0  0
    3.1120    1.9970   21.3400 C   0  0  0  0  0  0  0  0  0  0  0  0
    4.1390    1.0910   21.2770 C   0  0  0  0  0  0  0  0  0  0  0  0
    4.7550    0.7650   20.0340 C   0  0  0  0  0  0  0  0  0  0  0  0
    4.4990    0.6220   22.1870 H   0  0  0  0  0  0  0  0  0  0  0  0
    2.6720    2.2510   22.3010 H   0  0  0  0  0  0  0  0  0  0  0  0
    1.8250    3.3490   20.2380 H   0  0  0  0  0  0  0  0  0  0  0  0
    2.8210    2.7760   18.0400 H   0  0  0  0  0  0  0  0  0  0  0  0
    4.4210    1.4580   16.7020 H   0  0  0  0  0  0  0  0  0  0  0  0
    7.0430   -1.1960   18.4350 H   0  0  0  0  0  0  0  0  0  0  0  0
    7.0980   -0.1000   21.9780 C   0  0  0  0  0  0  0  0  0  0  0  0
    7.2990    1.0970   21.9600 O   0  0  0  0  0  0  0  0  0  0  0  0
    7.4560   -1.0820   23.1110 C   0  0  1  0  0  0  0  0  0  0  0  0
    6.5080   -0.7630   24.2980 C   0  0  0  0  0  0  0  0  0  0  0  0
    6.8860   -1.4250   25.5350 N   0  0  0  0  0  0  0  0  0  0  0  0
    5.8750   -2.0390   26.3860 C   0  0  0  0  0  0  0  0  0  0  0  0
    5.6000   -1.3010   27.6960 C   0  0  0  0  0  0  0  0  0  0  0  0
    5.3540    0.1700   27.4860 N   0  3  0  0  0  0  0  0  0  0  0  0
    5.3950    0.9570   28.7760 C   0  0  0  0  0  0  0  0  0  0  0  0
    4.1060    0.7910   29.5790 C   0  0  0  0  0  0  0  0  0  0  0  0
    2.9740    1.1750   28.8250 O   0  0  0  0  0  0  0  0  0  0  0  0
    2.8440    0.3790   27.6640 C   0  0  0  0  0  0  0  0  0  0  0  0
    4.0610    0.5130   26.7560 C   0  0  0  0  0  0  0  0  0  0  0  0
    3.9670   -0.1370   25.8850 H   0  0  0  0  0  0  0  0  0  0  0  0
    4.1480    1.5450   26.4110 H   0  0  0  0  0  0  0  0  0  0  0  0
    2.6930   -0.6770   27.9360 H   0  0  0  0  0  0  0  0  0  0  0  0
    1.9480    0.7350   27.1500 H   0  0  0  0  0  0  0  0  0  0  0  0
    4.0080   -0.2540   29.9170 H   0  0  0  0  0  0  0  0  0  0  0  0
    4.1180    1.4360   30.4610 H   0  0  0  0  0  0  0  0  0  0  0  0
    6.2580    0.6190   29.3550 H   0  0  0  0  0  0  0  0  0  0  0  0
    5.5280    2.0090   28.5200 H   0  0  0  0  0  0  0  0  0  0  0  0
    6.1480    0.4700   26.8890 H   0  0  0  0  0  0  0  0  0  0  0  0
    4.7350   -1.7590   28.1790 H   0  0  0  0  0  0  0  0  0  0  0  0
    6.4570   -1.4020   28.3660 H   0  0  0  0  0  0  0  0  0  0  0  0
    6.1840   -3.0540   26.6500 H   0  0  0  0  0  0  0  0  0  0  0  0
    4.9520   -2.0930   25.8010 H   0  0  0  0  0  0  0  0  0  0  0  0
    8.1900   -1.5780   25.9090 C   0  0  0  0  0  0  0  0  0  0  0  0
    8.4870   -2.0800   26.9800 O   0  0  0  0  0  0  0  0  0  0  0  0
    9.2280   -1.1400   24.9230 C   0  0  0  0  0  0  0  0  0  0  0  0
   10.5570   -1.0570   25.3370 C   0  0  0  0  0  0  0  0  0  0  0  0
   11.5580   -0.7560   24.4310 C   0  0  0  0  0  0  0  0  0  0  0  0
   11.2180   -0.5610   23.0930 C   0  0  0  0  0  0  0  0  0  0  0  0
   12.4770   -0.2000   21.9490 Cl  0  0  0  0  0  0  0  0  0  0  0  0
    9.9050   -0.6490   22.6630 C   0  0  0  0  0  0  0  0  0  0  0  0
    8.8860   -0.9120   23.5860 C   0  0  0  0  0  0  0  0  0  0  0  0
    9.6770   -0.4980   21.6140 H   0  0  0  0  0  0  0  0  0  0  0  0
   12.5970   -0.6900   24.7340 H   0  0  0  0  0  0  0  0  0  0  0  0
   10.7800   -1.2590   26.3800 H   0  0  0  0  0  0  0  0  0  0  0  0
    6.5380    0.3300   24.4280 H   0  0  0  0  0  0  0  0  0  0  0  0
    5.4810   -1.0640   24.0410 H   0  0  0  0  0  0  0  0  0  0  0  0
    6.4990   -2.7980   20.3800 H   0  0  0  0  0  0  0  0  0  0  0  0
    5.2220   -2.4220   21.5360 H   0  0  0  0  0  0  0  0  0  0  0  0
    8.2020   -2.7620   22.0250 H   0  0  0  0  0  0  0  0  0  0  0  0
    5.7440   -3.4060   23.7560 H   0  0  0  0  0  0  0  0  0  0  0  0
    7.4190   -3.7800   24.1850 H   0  0  0  0  0  0  0  0  0  0  0  0
    6.6660   -4.5590   22.7840 H   0  0  0  0  0  0  0  0  0  0  0  0
  1  2  1  0  0  0  0
  1 64  1  0  0  0  0
  1 65  1  0  0  0  0
  1 66  1  0  0  0  0
  2  3  1  0  0  0  0
  2 23  1  0  0  0  0
  2 63  1  6  0  0  0
  3  4  1  0  0  0  0
  3 61  1  0  0  0  0
  3 62  1  0  0  0  0
  4  5  1  0  0  0  0
  4 21  1  0  0  0  0
  5  6  2  0  0  0  0
  5 14  1  0  0  0  0
  6  7  1  0  0  0  0
  6 20  1  0  0  0  0
  7  8  2  0  0  0  0
  8  9  1  0  0  0  0
  8 19  1  0  0  0  0
  9 10  2  0  0  0  0
  9 14  1  0  0  0  0
 10 11  1  0  0  0  0
 10 18  1  0  0  0  0
 11 12  2  0  0  0  0
 11 17  1  0  0  0  0
 12 13  1  0  0  0  0
 12 16  1  0  0  0  0
 13 14  2  0  0  0  0
 13 15  1  0  0  0  0
 21 22  2  0  0  0  0
 23 21  1  6  0  0  0
 23 24  1  0  0  0  0
 23 55  1  0  0  0  0
 24 25  1  0  0  0  0
 24 59  1  0  0  0  0
 24 60  1  0  0  0  0
 25 26  1  0  0  0  0
 25 47  1  0  0  0  0
 26 27  1  0  0  0  0
 26 45  1  0  0  0  0
 26 46  1  0  0  0  0
 27 28  1  0  0  0  0
 27 43  1  0  0  0  0
 27 44  1  0  0  0  0
 28 29  1  0  0  0  0
 28 33  1  0  0  0  0
 28 42  1  0  0  0  0
 29 30  1  0  0  0  0
 29 40  1  0  0  0  0
 29 41  1  0  0  0  0
 30 31  1  0  0  0  0
 30 38  1  0  0  0  0
 30 39  1  0  0  0  0
 31 32  1  0  0  0  0
 32 33  1  0  0  0  0
 32 36  1  0  0  0  0
 32 37  1  0  0  0  0
 33 34  1  0  0  0  0
 33 35  1  0  0  0  0
 47 48  2  0  0  0  0
 47 49  1  0  0  0  0
 49 50  2  0  0  0  0
 49 55  1  0  0  0  0
 50 51  1  0  0  0  0
 50 58  1  0  0  0  0
 51 52  2  0  0  0  0
 51 57  1  0  0  0  0
 52 53  1  0  0  0  0
 52 54  1  0  0  0  0
 54 55  2  0  0  0  0
 54 56  1  0  0  0  0
M  CHG  1  28   1
M  END
>  <MODEL>
       2

$$$$
best_conformers_64.pdb
 OpenBabel02042510453D

 66 71  0  0  1  0  0  0  0  0999 V2000
    6.8170   -3.6220   23.3250 C   0  0  0  0  0  0  0  0  0  0  0  0
    7.2790   -2.4720   22.4190 C   0  0  1  0  0  0  0  0  0  0  0  0
    6.3100   -2.2040   21.2560 C   0  0  0  0  0  0  0  0  0  0  0  0
    6.4630   -0.7860   20.9790 N   0  0  0  0  0  0  0  0  0  0  0  0
    5.8490   -0.1500   19.8670 C   0  0  0  0  0  0  0  0  0  0  0  0
    6.2560   -0.4560   18.5890 C   0  0  0  0  0  0  0  0  0  0  0  0
    5.7650    0.1180   17.4640 N   0  0  0  0  0  0  0  0  0  0  0  0
    4.8030    1.0000   17.6060 C   0  0  0  0  0  0  0  0  0  0  0  0
    4.2380    1.3670   18.8590 C   0  0  0  0  0  0  0  0  0  0  0  0
    3.1770    2.3120   18.9510 C   0  0  0  0  0  0  0  0  0  0  0  0
    2.6280    2.6260   20.1680 C   0  0  0  0  0  0  0  0  0  0  0  0
    3.1120    1.9990   21.3410 C   0  0  0  0  0  0  0  0  0  0  0  0
    4.1410    1.0900   21.2710 C   0  0  0  0  0  0  0  0  0  0  0  0
    4.7550    0.7670   20.0270 C   0  0  0  0  0  0  0  0  0  0  0  0
    4.5020    0.6200   22.1780 H   0  0  0  0  0  0  0  0  0  0  0  0
    2.6770    2.2500   22.3040 H   0  0  0  0  0  0  0  0  0  0  0  0
    1.8230    3.3540   20.2410 H   0  0  0  0  0  0  0  0  0  0  0  0
    2.8160    2.7810   18.0400 H   0  0  0  0  0  0  0  0  0  0  0  0
    4.4180    1.4630   16.7000 H   0  0  0  0  0  0  0  0  0  0  0  0
    7.0400   -1.1940   18.4240 H   0  0  0  0  0  0  0  0  0  0  0  0
    7.1100   -0.0900   21.9780 C   0  0  0  0  0  0  0  0  0  0  0  0
    7.2860    1.1110   21.9720 O   0  0  0  0  0  0  0  0  0  0  0  0
    7.5080   -1.0740   23.0920 C   0  0  1  0  0  0  0  0  0  0  0  0
    6.5840   -0.7760   24.2990 C   0  0  0  0  0  0  0  0  0  0  0  0
    7.0230   -1.3980   25.5410 N   0  0  0  0  0  0  0  0  0  0  0  0
    6.0420   -1.6710   26.6000 C   0  0  0  0  0  0  0  0  0  0  0  0
    5.9170   -3.1640   26.9390 C   0  0  0  0  0  0  0  0  0  0  0  0
    4.8280   -3.4640   27.9210 N   0  3  0  0  0  0  0  0  0  0  0  0
    4.5270   -4.9410   27.9530 C   0  0  0  0  0  0  0  0  0  0  0  0
    3.4900   -5.2770   29.0170 C   0  0  0  0  0  0  0  0  0  0  0  0
    3.8910   -4.8480   30.3020 O   0  0  0  0  0  0  0  0  0  0  0  0
    4.0710   -3.4460   30.3110 C   0  0  0  0  0  0  0  0  0  0  0  0
    5.1410   -2.9890   29.3230 C   0  0  0  0  0  0  0  0  0  0  0  0
    5.2090   -1.8980   29.3300 H   0  0  0  0  0  0  0  0  0  0  0  0
    6.1090   -3.4090   29.6160 H   0  0  0  0  0  0  0  0  0  0  0  0
    3.1190   -2.9440   30.0620 H   0  0  0  0  0  0  0  0  0  0  0  0
    4.3560   -3.1800   31.3340 H   0  0  0  0  0  0  0  0  0  0  0  0
    2.5300   -4.8050   28.7410 H   0  0  0  0  0  0  0  0  0  0  0  0
    3.3470   -6.3610   29.0860 H   0  0  0  0  0  0  0  0  0  0  0  0
    4.1740   -5.2500   26.9630 H   0  0  0  0  0  0  0  0  0  0  0  0
    5.4570   -5.4730   28.1770 H   0  0  0  0  0  0  0  0  0  0  0  0
    3.9670   -2.9780   27.5910 H   0  0  0  0  0  0  0  0  0  0  0  0
    6.8660   -3.5230   27.3500 H   0  0  0  0  0  0  0  0  0  0  0  0
    5.7000   -3.7280   26.0240 H   0  0  0  0  0  0  0  0  0  0  0  0
    5.0720   -1.2990   26.2530 H   0  0  0  0  0  0  0  0  0  0  0  0
    6.3150   -1.1100   27.5040 H   0  0  0  0  0  0  0  0  0  0  0  0
    8.3460   -1.4670   25.8700 C   0  0  0  0  0  0  0  0  0  0  0  0
    8.7140   -1.8690   26.9630 O   0  0  0  0  0  0  0  0  0  0  0  0
    9.3420   -1.0740   24.8310 C   0  0  0  0  0  0  0  0  0  0  0  0
   10.6840   -0.9980   25.2000 C   0  0  0  0  0  0  0  0  0  0  0  0
   11.6570   -0.7190   24.2610 C   0  0  0  0  0  0  0  0  0  0  0  0
   11.2640   -0.5400   22.9380 C   0  0  0  0  0  0  0  0  0  0  0  0
   12.4900   -0.1950   21.7580 Cl  0  0  0  0  0  0  0  0  0  0  0  0
    9.9390   -0.6380   22.5500 C   0  0  0  0  0  0  0  0  0  0  0  0
    8.9510   -0.8900   23.5070 C   0  0  0  0  0  0  0  0  0  0  0  0
    9.6690   -0.5010   21.5100 H   0  0  0  0  0  0  0  0  0  0  0  0
   12.7080   -0.6430   24.5200 H   0  0  0  0  0  0  0  0  0  0  0  0
   10.9530   -1.1810   26.2320 H   0  0  0  0  0  0  0  0  0  0  0  0
    6.5450    0.3190   24.4000 H   0  0  0  0  0  0  0  0  0  0  0  0
    5.5750   -1.1510   24.0910 H   0  0  0  0  0  0  0  0  0  0  0  0
    5.2720   -2.4600   21.5250 H   0  0  0  0  0  0  0  0  0  0  0  0
    6.5490   -2.7780   20.3630 H   0  0  0  0  0  0  0  0  0  0  0  0
    8.2580   -2.7450   21.9980 H   0  0  0  0  0  0  0  0  0  0  0  0
    5.8100   -3.4370   23.7210 H   0  0  0  0  0  0  0  0  0  0  0  0
    7.4840   -3.7460   24.1860 H   0  0  0  0  0  0  0  0  0  0  0  0
    6.7920   -4.5730   22.7740 H   0  0  0  0  0  0  0  0  0  0  0  0
  1  2  1  0  0  0  0
  1 64  1  0  0  0  0
  1 65  1  0  0  0  0
  1 66  1  0  0  0  0
  2  3  1  0  0  0  0
  2 23  1  0  0  0  0
  2 63  1  6  0  0  0
  3  4  1  0  0  0  0
  3 61  1  0  0  0  0
  3 62  1  0  0  0  0
  4  5  1  0  0  0  0
  4 21  1  0  0  0  0
  5  6  2  0  0  0  0
  5 14  1  0  0  0  0
  6  7  1  0  0  0  0
  6 20  1  0  0  0  0
  7  8  2  0  0  0  0
  8  9  1  0  0  0  0
  8 19  1  0  0  0  0
  9 10  2  0  0  0  0
  9 14  1  0  0  0  0
 10 11  1  0  0  0  0
 10 18  1  0  0  0  0
 11 12  2  0  0  0  0
 11 17  1  0  0  0  0
 12 13  1  0  0  0  0
 12 16  1  0  0  0  0
 13 14  2  0  0  0  0
 13 15  1  0  0  0  0
 21 22  2  0  0  0  0
 23 21  1  6  0  0  0
 23 24  1  0  0  0  0
 23 55  1  0  0  0  0
 24 25  1  0  0  0  0
 24 59  1  0  0  0  0
 24 60  1  0  0  0  0
 25 26  1  0  0  0  0
 25 47  1  0  0  0  0
 26 27  1  0  0  0  0
 26 45  1  0  0  0  0
 26 46  1  0  0  0  0
 27 28  1  0  0  0  0
 27 43  1  0  0  0  0
 27 44  1  0  0  0  0
 28 29  1  0  0  0  0
 28 33  1  0  0  0  0
 28 42  1  0  0  0  0
 29 30  1  0  0  0  0
 29 40  1  0  0  0  0
 29 41  1  0  0  0  0
 30 31  1  0  0  0  0
 30 38  1  0  0  0  0
 30 39  1  0  0  0  0
 31 32  1  0  0  0  0
 32 33  1  0  0  0  0
 32 36  1  0  0  0  0
 32 37  1  0  0  0  0
 33 34  1  0  0  0  0
 33 35  1  0  0  0  0
 47 48  2  0  0  0  0
 47 49  1  0  0  0  0
 49 50  2  0  0  0  0
 49 55  1  0  0  0  0
 50 51  1  0  0  0  0
 50 58  1  0  0  0  0
 51 52  2  0  0  0  0
 51 57  1  0  0  0  0
 52 53  1  0  0  0  0
 52 54  1  0  0  0  0
 54 55  2  0  0  0  0
 54 56  1  0  0  0  0
M  CHG  1  28   1
M  END
>  <MODEL>
       3

$$$$
best_conformers_64.pdb
 OpenBabel02042510453D

 66 71  0  0  1  0  0  0  0  0999 V2000
    6.4090   -2.9610   23.9570 C   0  0  0  0  0  0  0  0  0  0  0  0
    6.9940   -2.2550   22.7320 C   0  0  1  0  0  0  0  0  0  0  0  0
    5.9140   -1.9360   21.6770 C   0  0  0  0  0  0  0  0  0  0  0  0
    6.4600   -0.7940   20.9730 N   0  0  0  0  0  0  0  0  0  0  0  0
    5.8400   -0.1650   19.8630 C   0  0  0  0  0  0  0  0  0  0  0  0
    6.2820   -0.4480   18.5970 C   0  0  0  0  0  0  0  0  0  0  0  0
    5.7880    0.1120   17.4640 N   0  0  0  0  0  0  0  0  0  0  0  0
    4.8140    0.9830   17.6030 C   0  0  0  0  0  0  0  0  0  0  0  0
    4.2550    1.3660   18.8570 C   0  0  0  0  0  0  0  0  0  0  0  0
    3.2080    2.3240   18.9560 C   0  0  0  0  0  0  0  0  0  0  0  0
    2.6890    2.6700   20.1750 C   0  0  0  0  0  0  0  0  0  0  0  0
    3.1850    2.0710   21.3530 C   0  0  0  0  0  0  0  0  0  0  0  0
    4.2030    1.1480   21.2840 C   0  0  0  0  0  0  0  0  0  0  0  0
    4.7720    0.7720   20.0330 C   0  0  0  0  0  0  0  0  0  0  0  0
    4.5740    0.7070   22.2030 H   0  0  0  0  0  0  0  0  0  0  0  0
    2.7630    2.3420   22.3190 H   0  0  0  0  0  0  0  0  0  0  0  0
    1.9000    3.4160   20.2450 H   0  0  0  0  0  0  0  0  0  0  0  0
    2.8340    2.7760   18.0430 H   0  0  0  0  0  0  0  0  0  0  0  0
    4.4130    1.4360   16.6960 H   0  0  0  0  0  0  0  0  0  0  0  0
    7.0880   -1.1670   18.4580 H   0  0  0  0  0  0  0  0  0  0  0  0
    7.5130   -0.1920   21.6200 C   0  0  0  0  0  0  0  0  0  0  0  0
    8.1360    0.7550   21.1790 O   0  0  0  0  0  0  0  0  0  0  0  0
    7.7190   -0.9020   22.9780 C   0  0  1  0  0  0  0  0  0  0  0  0
    7.0070   -0.0970   24.1040 C   0  0  0  0  0  0  0  0  0  0  0  0
    7.5880    1.2130   24.2970 N   0  0  0  0  0  0  0  0  0  0  0  0
    6.7680    2.4070   24.3650 C   0  0  0  0  0  0  0  0  0  0  0  0
    6.7770    3.1490   23.0300 C   0  0  0  0  0  0  0  0  0  0  0  0
    5.8530    4.2990   22.9790 N   0  3  0  0  0  0  0  0  0  0  0  0
    6.2140    5.3960   23.9590 C   0  0  0  0  0  0  0  0  0  0  0  0
    5.4830    6.6880   23.5630 C   0  0  0  0  0  0  0  0  0  0  0  0
    4.3270    6.3700   22.8190 O   0  0  0  0  0  0  0  0  0  0  0  0
    4.6700    5.9360   21.5180 C   0  0  0  0  0  0  0  0  0  0  0  0
    5.7330    4.8230   21.5750 C   0  0  0  0  0  0  0  0  0  0  0  0
    6.7120    5.1990   21.2550 H   0  0  0  0  0  0  0  0  0  0  0  0
    5.4670    3.9850   20.9210 H   0  0  0  0  0  0  0  0  0  0  0  0
    5.0470    6.7790   20.9120 H   0  0  0  0  0  0  0  0  0  0  0  0
    3.7360    5.5910   21.0640 H   0  0  0  0  0  0  0  0  0  0  0  0
    6.1480    7.3470   22.9820 H   0  0  0  0  0  0  0  0  0  0  0  0
    5.1460    7.2400   24.4450 H   0  0  0  0  0  0  0  0  0  0  0  0
    5.9120    5.0750   24.9590 H   0  0  0  0  0  0  0  0  0  0  0  0
    7.2990    5.5350   23.9590 H   0  0  0  0  0  0  0  0  0  0  0  0
    4.9080    3.9600   23.2390 H   0  0  0  0  0  0  0  0  0  0  0  0
    6.5310    2.4580   22.2180 H   0  0  0  0  0  0  0  0  0  0  0  0
    7.7940    3.5000   22.8340 H   0  0  0  0  0  0  0  0  0  0  0  0
    7.1770    3.0360   25.1600 H   0  0  0  0  0  0  0  0  0  0  0  0
    5.7490    2.1220   24.6480 H   0  0  0  0  0  0  0  0  0  0  0  0
    8.9280    1.4040   24.2220 C   0  0  0  0  0  0  0  0  0  0  0  0
    9.4490    2.5110   24.3430 O   0  0  0  0  0  0  0  0  0  0  0  0
    9.7430    0.1900   23.9630 C   0  0  0  0  0  0  0  0  0  0  0  0
   11.0870    0.2690   24.3050 C   0  0  0  0  0  0  0  0  0  0  0  0
   11.9450   -0.7480   23.9880 C   0  0  0  0  0  0  0  0  0  0  0  0
   11.4310   -1.8330   23.2840 C   0  0  0  0  0  0  0  0  0  0  0  0
   12.6410   -2.9690   22.8200 Cl  0  0  0  0  0  0  0  0  0  0  0  0
   10.0860   -1.9520   22.9440 C   0  0  0  0  0  0  0  0  0  0  0  0
    9.1970   -0.9350   23.3290 C   0  0  0  0  0  0  0  0  0  0  0  0
    9.7310   -2.8030   22.3660 H   0  0  0  0  0  0  0  0  0  0  0  0
   13.0070   -0.6880   24.2290 H   0  0  0  0  0  0  0  0  0  0  0  0
   11.4740    1.1490   24.7900 H   0  0  0  0  0  0  0  0  0  0  0  0
    7.0810   -0.6770   25.0320 H   0  0  0  0  0  0  0  0  0  0  0  0
    5.9440    0.0210   23.8760 H   0  0  0  0  0  0  0  0  0  0  0  0
    4.9490   -1.6940   22.1490 H   0  0  0  0  0  0  0  0  0  0  0  0
    5.7400   -2.7630   20.9820 H   0  0  0  0  0  0  0  0  0  0  0  0
    7.7210   -2.9160   22.2520 H   0  0  0  0  0  0  0  0  0  0  0  0
    5.9810   -3.9320   23.6850 H   0  0  0  0  0  0  0  0  0  0  0  0
    7.1580   -3.1330   24.7390 H   0  0  0  0  0  0  0  0  0  0  0  0
    5.5960   -2.3710   24.3980 H   0  0  0  0  0  0  0  0  0  0  0  0
  1  2  1  0  0  0  0
  1 64  1  0  0  0  0
  1 65  1  0  0  0  0
  1 66  1  0  0  0  0
  2  3  1  0  0  0  0
  2 23  1  0  0  0  0
  2 63  1  6  0  0  0
  3  4  1  0  0  0  0
  3 61  1  0  0  0  0
  3 62  1  0  0  0  0
  4  5  1  0  0  0  0
  4 21  1  0  0  0  0
  5  6  2  0  0  0  0
  5 14  1  0  0  0  0
  6  7  1  0  0  0  0
  6 20  1  0  0  0  0
  7  8  2  0  0  0  0
  8  9  1  0  0  0  0
  8 19  1  0  0  0  0
  9 10  2  0  0  0  0
  9 14  1  0  0  0  0
 10 11  1  0  0  0  0
 10 18  1  0  0  0  0
 11 12  2  0  0  0  0
 11 17  1  0  0  0  0
 12 13  1  0  0  0  0
 12 16  1  0  0  0  0
 13 14  2  0  0  0  0
 13 15  1  0  0  0  0
 21 22  2  0  0  0  0
 23 21  1  6  0  0  0
 23 24  1  0  0  0  0
 23 55  1  0  0  0  0
 24 25  1  0  0  0  0
 24 59  1  0  0  0  0
 24 60  1  0  0  0  0
 25 26  1  0  0  0  0
 25 47  1  0  0  0  0
 26 27  1  0  0  0  0
 26 45  1  0  0  0  0
 26 46  1  0  0  0  0
 27 28  1  0  0  0  0
 27 43  1  0  0  0  0
 27 44  1  0  0  0  0
 28 29  1  0  0  0  0
 28 33  1  0  0  0  0
 28 42  1  0  0  0  0
 29 30  1  0  0  0  0
 29 40  1  0  0  0  0
 29 41  1  0  0  0  0
 30 31  1  0  0  0  0
 30 38  1  0  0  0  0
 30 39  1  0  0  0  0
 31 32  1  0  0  0  0
 32 33  1  0  0  0  0
 32 36  1  0  0  0  0
 32 37  1  0  0  0  0
 33 34  1  0  0  0  0
 33 35  1  0  0  0  0
 47 48  2  0  0  0  0
 47 49  1  0  0  0  0
 49 50  2  0  0  0  0
 49 55  1  0  0  0  0
 50 51  1  0  0  0  0
 50 58  1  0  0  0  0
 51 52  2  0  0  0  0
 51 57  1  0  0  0  0
 52 53  1  0  0  0  0
 52 54  1  0  0  0  0
 54 55  2  0  0  0  0
 54 56  1  0  0  0  0
M  CHG  1  28   1
M  END
>  <MODEL>
       4

$$$$
best_conformers_64.pdb
 OpenBabel02042510453D

 66 71  0  0  1  0  0  0  0  0999 V2000
    6.8320   -3.6470   23.2980 C   0  0  0  0  0  0  0  0  0  0  0  0
    7.2790   -2.4820   22.4050 C   0  0  1  0  0  0  0  0  0  0  0  0
    6.3030   -2.2080   21.2490 C   0  0  0  0  0  0  0  0  0  0  0  0
    6.4550   -0.7890   20.9790 N   0  0  0  0  0  0  0  0  0  0  0  0
    5.8480   -0.1510   19.8660 C   0  0  0  0  0  0  0  0  0  0  0  0
    6.2580   -0.4570   18.5930 C   0  0  0  0  0  0  0  0  0  0  0  0
    5.7690    0.1160   17.4650 N   0  0  0  0  0  0  0  0  0  0  0  0
    4.8070    0.9970   17.6100 C   0  0  0  0  0  0  0  0  0  0  0  0
    4.2390    1.3660   18.8600 C   0  0  0  0  0  0  0  0  0  0  0  0
    3.1780    2.3100   18.9550 C   0  0  0  0  0  0  0  0  0  0  0  0
    2.6280    2.6230   20.1660 C   0  0  0  0  0  0  0  0  0  0  0  0
    3.1110    1.9960   21.3410 C   0  0  0  0  0  0  0  0  0  0  0  0
    4.1380    1.0900   21.2720 C   0  0  0  0  0  0  0  0  0  0  0  0
    4.7550    0.7650   20.0320 C   0  0  0  0  0  0  0  0  0  0  0  0
    4.4980    0.6210   22.1830 H   0  0  0  0  0  0  0  0  0  0  0  0
    2.6730    2.2490   22.3020 H   0  0  0  0  0  0  0  0  0  0  0  0
    1.8240    3.3520   20.2380 H   0  0  0  0  0  0  0  0  0  0  0  0
    2.8200    2.7780   18.0390 H   0  0  0  0  0  0  0  0  0  0  0  0
    4.4200    1.4590   16.7010 H   0  0  0  0  0  0  0  0  0  0  0  0
    7.0430   -1.1950   18.4300 H   0  0  0  0  0  0  0  0  0  0  0  0
    7.0970   -0.0940   21.9810 C   0  0  0  0  0  0  0  0  0  0  0  0
    7.2730    1.1080   21.9800 O   0  0  0  0  0  0  0  0  0  0  0  0
    7.4850   -1.0850   23.0940 C   0  0  1  0  0  0  0  0  0  0  0  0
    6.5410   -0.8190   24.2940 C   0  0  0  0  0  0  0  0  0  0  0  0
    6.9460   -1.5460   25.4830 N   0  0  0  0  0  0  0  0  0  0  0  0
    5.9330   -2.0370   26.4080 C   0  0  0  0  0  0  0  0  0  0  0  0
    5.5000   -0.9880   27.4390 C   0  0  0  0  0  0  0  0  0  0  0  0
    4.3220   -1.4190   28.2640 N   0  3  0  0  0  0  0  0  0  0  0  0
    3.7460   -0.2500   29.0270 C   0  0  0  0  0  0  0  0  0  0  0  0
    2.6080   -0.6860   29.9390 C   0  0  0  0  0  0  0  0  0  0  0  0
    3.0140   -1.6910   30.8450 O   0  0  0  0  0  0  0  0  0  0  0  0
    3.4530   -2.8350   30.1430 C   0  0  0  0  0  0  0  0  0  0  0  0
    4.6430   -2.5400   29.2370 C   0  0  0  0  0  0  0  0  0  0  0  0
    5.4990   -2.2270   29.8440 H   0  0  0  0  0  0  0  0  0  0  0  0
    4.9120   -3.4350   28.6740 H   0  0  0  0  0  0  0  0  0  0  0  0
    3.7230   -3.5740   30.9020 H   0  0  0  0  0  0  0  0  0  0  0  0
    2.6270   -3.2370   29.5310 H   0  0  0  0  0  0  0  0  0  0  0  0
    1.7710   -1.0520   29.3190 H   0  0  0  0  0  0  0  0  0  0  0  0
    2.2600    0.1520   30.5490 H   0  0  0  0  0  0  0  0  0  0  0  0
    3.3980    0.4960   28.3080 H   0  0  0  0  0  0  0  0  0  0  0  0
    4.5470    0.1870   29.6310 H   0  0  0  0  0  0  0  0  0  0  0  0
    3.5870   -1.7550   27.6020 H   0  0  0  0  0  0  0  0  0  0  0  0
    5.2160   -0.0590   26.9300 H   0  0  0  0  0  0  0  0  0  0  0  0
    6.3370   -0.7730   28.1170 H   0  0  0  0  0  0  0  0  0  0  0  0
    6.3460   -2.9120   26.9160 H   0  0  0  0  0  0  0  0  0  0  0  0
    5.0530   -2.3480   25.8250 H   0  0  0  0  0  0  0  0  0  0  0  0
    8.2500   -1.5730   25.8850 C   0  0  0  0  0  0  0  0  0  0  0  0
    8.5770   -2.0000   26.9770 O   0  0  0  0  0  0  0  0  0  0  0  0
    9.2700   -1.1020   24.8930 C   0  0  0  0  0  0  0  0  0  0  0  0
   10.6000   -0.9910   25.3000 C   0  0  0  0  0  0  0  0  0  0  0  0
   11.5910   -0.6760   24.3890 C   0  0  0  0  0  0  0  0  0  0  0  0
   11.2350   -0.4890   23.0540 C   0  0  0  0  0  0  0  0  0  0  0  0
   12.4790   -0.1030   21.9050 Cl  0  0  0  0  0  0  0  0  0  0  0  0
    9.9230   -0.6050   22.6310 C   0  0  0  0  0  0  0  0  0  0  0  0
    8.9150   -0.8880   23.5590 C   0  0  0  0  0  0  0  0  0  0  0  0
    9.6820   -0.4590   21.5840 H   0  0  0  0  0  0  0  0  0  0  0  0
   12.6320   -0.5880   24.6830 H   0  0  0  0  0  0  0  0  0  0  0  0
   10.8370   -1.1880   26.3390 H   0  0  0  0  0  0  0  0  0  0  0  0
    6.5560    0.2690   24.4670 H   0  0  0  0  0  0  0  0  0  0  0  0
    5.5180   -1.1310   24.0450 H   0  0  0  0  0  0  0  0  0  0  0  0
    6.5380   -2.7790   20.3520 H   0  0  0  0  0  0  0  0  0  0  0  0
    5.2670   -2.4580   21.5260 H   0  0  0  0  0  0  0  0  0  0  0  0
    8.2620   -2.7310   21.9820 H   0  0  0  0  0  0  0  0  0  0  0  0
    5.8360   -3.4640   23.7220 H   0  0  0  0  0  0  0  0  0  0  0  0
    6.7820   -4.5820   22.7280 H   0  0  0  0  0  0  0  0  0  0  0  0
    7.5190   -3.7930   24.1370 H   0  0  0  0  0  0  0  0  0  0  0  0
  1  2  1  0  0  0  0
  1 64  1  0  0  0  0
  1 65  1  0  0  0  0
  1 66  1  0  0  0  0
  2  3  1  0  0  0  0
  2 23  1  0  0  0  0
  2 63  1  6  0  0  0
  3  4  1  0  0  0  0
  3 61  1  0  0  0  0
  3 62  1  0  0  0  0
  4  5  1  0  0  0  0
  4 21  1  0  0  0  0
  5  6  2  0  0  0  0
  5 14  1  0  0  0  0
  6  7  1  0  0  0  0
  6 20  1  0  0  0  0
  7  8  2  0  0  0  0
  8  9  1  0  0  0  0
  8 19  1  0  0  0  0
  9 10  2  0  0  0  0
  9 14  1  0  0  0  0
 10 11  1  0  0  0  0
 10 18  1  0  0  0  0
 11 12  2  0  0  0  0
 11 17  1  0  0  0  0
 12 13  1  0  0  0  0
 12 16  1  0  0  0  0
 13 14  2  0  0  0  0
 13 15  1  0  0  0  0
 21 22  2  0  0  0  0
 23 21  1  6  0  0  0
 23 24  1  0  0  0  0
 23 55  1  0  0  0  0
 24 25  1  0  0  0  0
 24 59  1  0  0  0  0
 24 60  1  0  0  0  0
 25 26  1  0  0  0  0
 25 47  1  0  0  0  0
 26 27  1  0  0  0  0
 26 45  1  0  0  0  0
 26 46  1  0  0  0  0
 27 28  1  0  0  0  0
 27 43  1  0  0  0  0
 27 44  1  0  0  0  0
 28 29  1  0  0  0  0
 28 33  1  0  0  0  0
 28 42  1  0  0  0  0
 29 30  1  0  0  0  0
 29 40  1  0  0  0  0
 29 41  1  0  0  0  0
 30 31  1  0  0  0  0
 30 38  1  0  0  0  0
 30 39  1  0  0  0  0
 31 32  1  0  0  0  0
 32 33  1  0  0  0  0
 32 36  1  0  0  0  0
 32 37  1  0  0  0  0
 33 34  1  0  0  0  0
 33 35  1  0  0  0  0
 47 48  2  0  0  0  0
 47 49  1  0  0  0  0
 49 50  2  0  0  0  0
 49 55  1  0  0  0  0
 50 51  1  0  0  0  0
 50 58  1  0  0  0  0
 51 52  2  0  0  0  0
 51 57  1  0  0  0  0
 52 53  1  0  0  0  0
 52 54  1  0  0  0  0
 54 55  2  0  0  0  0
 54 56  1  0  0  0  0
M  CHG  1  28   1
M  END
>  <MODEL>
       5

$$$$
best_conformers_64.pdb
 OpenBabel02042510453D

 66 71  0  0  1  0  0  0  0  0999 V2000
    6.8270   -3.6310   23.3140 C   0  0  0  0  0  0  0  0  0  0  0  0
    7.2780   -2.4770   22.4090 C   0  0  1  0  0  0  0  0  0  0  0  0
    6.2970   -2.2040   21.2560 C   0  0  0  0  0  0  0  0  0  0  0  0
    6.4570   -0.7880   20.9770 N   0  0  0  0  0  0  0  0  0  0  0  0
    5.8490   -0.1500   19.8640 C   0  0  0  0  0  0  0  0  0  0  0  0
    6.2590   -0.4570   18.5930 C   0  0  0  0  0  0  0  0  0  0  0  0
    5.7690    0.1150   17.4640 N   0  0  0  0  0  0  0  0  0  0  0  0
    4.8070    0.9960   17.6100 C   0  0  0  0  0  0  0  0  0  0  0  0
    4.2400    1.3660   18.8600 C   0  0  0  0  0  0  0  0  0  0  0  0
    3.1790    2.3100   18.9560 C   0  0  0  0  0  0  0  0  0  0  0  0
    2.6300    2.6240   20.1670 C   0  0  0  0  0  0  0  0  0  0  0  0
    3.1140    1.9980   21.3420 C   0  0  0  0  0  0  0  0  0  0  0  0
    4.1410    1.0920   21.2730 C   0  0  0  0  0  0  0  0  0  0  0  0
    4.7570    0.7660   20.0330 C   0  0  0  0  0  0  0  0  0  0  0  0
    4.5010    0.6240   22.1840 H   0  0  0  0  0  0  0  0  0  0  0  0
    2.6760    2.2530   22.3030 H   0  0  0  0  0  0  0  0  0  0  0  0
    1.8260    3.3540   20.2390 H   0  0  0  0  0  0  0  0  0  0  0  0
    2.8210    2.7780   18.0390 H   0  0  0  0  0  0  0  0  0  0  0  0
    4.4210    1.4580   16.7020 H   0  0  0  0  0  0  0  0  0  0  0  0
    7.0430   -1.1960   18.4310 H   0  0  0  0  0  0  0  0  0  0  0  0
    7.1090   -0.0890   21.9700 C   0  0  0  0  0  0  0  0  0  0  0  0
    7.2910    1.1110   21.9600 O   0  0  0  0  0  0  0  0  0  0  0  0
    7.5010   -1.0750   23.0850 C   0  0  1  0  0  0  0  0  0  0  0  0
    6.5720   -0.7910   24.2920 C   0  0  0  0  0  0  0  0  0  0  0  0
    6.9870   -1.5040   25.4860 N   0  0  0  0  0  0  0  0  0  0  0  0
    5.9780   -1.9550   26.4320 C   0  0  0  0  0  0  0  0  0  0  0  0
    5.5250   -0.8510   27.3990 C   0  0  0  0  0  0  0  0  0  0  0  0
    4.5700   -1.3030   28.4720 N   0  3  0  0  0  0  0  0  0  0  0  0
    3.2740   -1.9070   27.9710 C   0  0  0  0  0  0  0  0  0  0  0  0
    2.3640   -2.2380   29.1510 C   0  0  0  0  0  0  0  0  0  0  0  0
    2.9890   -3.1070   30.0750 O   0  0  0  0  0  0  0  0  0  0  0  0
    4.1610   -2.5190   30.6060 C   0  0  0  0  0  0  0  0  0  0  0  0
    5.1850   -2.2000   29.5220 C   0  0  0  0  0  0  0  0  0  0  0  0
    6.0550   -1.6950   29.9540 H   0  0  0  0  0  0  0  0  0  0  0  0
    5.5090   -3.1280   29.0450 H   0  0  0  0  0  0  0  0  0  0  0  0
    3.9040   -1.5890   31.1440 H   0  0  0  0  0  0  0  0  0  0  0  0
    4.5670   -3.2420   31.3180 H   0  0  0  0  0  0  0  0  0  0  0  0
    1.4630   -2.7550   28.8120 H   0  0  0  0  0  0  0  0  0  0  0  0
    2.0710   -1.3000   29.6570 H   0  0  0  0  0  0  0  0  0  0  0  0
    2.7890   -1.1960   27.2950 H   0  0  0  0  0  0  0  0  0  0  0  0
    3.5000   -2.8250   27.4270 H   0  0  0  0  0  0  0  0  0  0  0  0
    4.3000   -0.4290   28.9690 H   0  0  0  0  0  0  0  0  0  0  0  0
    5.0200   -0.0580   26.8350 H   0  0  0  0  0  0  0  0  0  0  0  0
    6.4020   -0.4290   27.9020 H   0  0  0  0  0  0  0  0  0  0  0  0
    5.1150   -2.3180   25.8570 H   0  0  0  0  0  0  0  0  0  0  0  0
    6.4080   -2.7860   26.9960 H   0  0  0  0  0  0  0  0  0  0  0  0
    8.2950   -1.5390   25.8730 C   0  0  0  0  0  0  0  0  0  0  0  0
    8.6310   -1.9470   26.9680 O   0  0  0  0  0  0  0  0  0  0  0  0
    9.3060   -1.0930   24.8640 C   0  0  0  0  0  0  0  0  0  0  0  0
   10.6390   -0.9900   25.2590 C   0  0  0  0  0  0  0  0  0  0  0  0
   11.6230   -0.6900   24.3360 C   0  0  0  0  0  0  0  0  0  0  0  0
   11.2560   -0.5110   23.0040 C   0  0  0  0  0  0  0  0  0  0  0  0
   12.4950   -0.1440   21.8430 Cl  0  0  0  0  0  0  0  0  0  0  0  0
    9.9390   -0.6190   22.5930 C   0  0  0  0  0  0  0  0  0  0  0  0
    8.9380   -0.8860   23.5330 C   0  0  0  0  0  0  0  0  0  0  0  0
    9.6880   -0.4790   21.5470 H   0  0  0  0  0  0  0  0  0  0  0  0
   12.6670   -0.6080   24.6190 H   0  0  0  0  0  0  0  0  0  0  0  0
   10.8810   -1.1810   26.2990 H   0  0  0  0  0  0  0  0  0  0  0  0
    5.5440   -1.1020   24.0590 H   0  0  0  0  0  0  0  0  0  0  0  0
    6.5950    0.2990   24.4540 H   0  0  0  0  0  0  0  0  0  0  0  0
    5.2600   -2.4430   21.5430 H   0  0  0  0  0  0  0  0  0  0  0  0
    6.5230   -2.7840   20.3610 H   0  0  0  0  0  0  0  0  0  0  0  0
    8.2570   -2.7370   21.9810 H   0  0  0  0  0  0  0  0  0  0  0  0
    5.8350   -3.4370   23.7420 H   0  0  0  0  0  0  0  0  0  0  0  0
    7.5180   -3.7750   24.1510 H   0  0  0  0  0  0  0  0  0  0  0  0
    6.7660   -4.5710   22.7520 H   0  0  0  0  0  0  0  0  0  0  0  0
  1  2  1  0  0  0  0
  1 64  1  0  0  0  0
  1 65  1  0  0  0  0
  1 66  1  0  0  0  0
  2  3  1  0  0  0  0
  2 23  1  0  0  0  0
  2 63  1  6  0  0  0
  3  4  1  0  0  0  0
  3 61  1  0  0  0  0
  3 62  1  0  0  0  0
  4  5  1  0  0  0  0
  4 21  1  0  0  0  0
  5  6  2  0  0  0  0
  5 14  1  0  0  0  0
  6  7  1  0  0  0  0
  6 20  1  0  0  0  0
  7  8  2  0  0  0  0
  8  9  1  0  0  0  0
  8 19  1  0  0  0  0
  9 10  2  0  0  0  0
  9 14  1  0  0  0  0
 10 11  1  0  0  0  0
 10 18  1  0  0  0  0
 11 12  2  0  0  0  0
 11 17  1  0  0  0  0
 12 13  1  0  0  0  0
 12 16  1  0  0  0  0
 13 14  2  0  0  0  0
 13 15  1  0  0  0  0
 21 22  2  0  0  0  0
 23 21  1  6  0  0  0
 23 24  1  0  0  0  0
 23 55  1  0  0  0  0
 24 25  1  0  0  0  0
 24 59  1  0  0  0  0
 24 60  1  0  0  0  0
 25 26  1  0  0  0  0
 25 47  1  0  0  0  0
 26 27  1  0  0  0  0
 26 45  1  0  0  0  0
 26 46  1  0  0  0  0
 27 28  1  0  0  0  0
 27 43  1  0  0  0  0
 27 44  1  0  0  0  0
 28 29  1  0  0  0  0
 28 33  1  0  0  0  0
 28 42  1  0  0  0  0
 29 30  1  0  0  0  0
 29 40  1  0  0  0  0
 29 41  1  0  0  0  0
 30 31  1  0  0  0  0
 30 38  1  0  0  0  0
 30 39  1  0  0  0  0
 31 32  1  0  0  0  0
 32 33  1  0  0  0  0
 32 36  1  0  0  0  0
 32 37  1  0  0  0  0
 33 34  1  0  0  0  0
 33 35  1  0  0  0  0
 47 48  2  0  0  0  0
 47 49  1  0  0  0  0
 49 50  2  0  0  0  0
 49 55  1  0  0  0  0
 50 51  1  0  0  0  0
 50 58  1  0  0  0  0
 51 52  2  0  0  0  0
 51 57  1  0  0  0  0
 52 53  1  0  0  0  0
 52 54  1  0  0  0  0
 54 55  2  0  0  0  0
 54 56  1  0  0  0  0
M  CHG  1  28   1
M  END
>  <MODEL>
       6

$$$$
best_conformers_64.pdb
 OpenBabel02042510453D

 66 71  0  0  1  0  0  0  0  0999 V2000
    6.7820   -3.6260   23.3270 C   0  0  0  0  0  0  0  0  0  0  0  0
    7.2470   -2.4830   22.4220 C   0  0  1  0  0  0  0  0  0  0  0  0
    6.2810   -2.2050   21.2600 C   0  0  0  0  0  0  0  0  0  0  0  0
    6.4520   -0.7910   20.9800 N   0  0  0  0  0  0  0  0  0  0  0  0
    5.8480   -0.1520   19.8690 C   0  0  0  0  0  0  0  0  0  0  0  0
    6.2620   -0.4580   18.5960 C   0  0  0  0  0  0  0  0  0  0  0  0
    5.7750    0.1130   17.4670 N   0  0  0  0  0  0  0  0  0  0  0  0
    4.8110    0.9940   17.6120 C   0  0  0  0  0  0  0  0  0  0  0  0
    4.2440    1.3640   18.8650 C   0  0  0  0  0  0  0  0  0  0  0  0
    3.1820    2.3080   18.9550 C   0  0  0  0  0  0  0  0  0  0  0  0
    2.6310    2.6210   20.1670 C   0  0  0  0  0  0  0  0  0  0  0  0
    3.1120    1.9990   21.3410 C   0  0  0  0  0  0  0  0  0  0  0  0
    4.1390    1.0920   21.2780 C   0  0  0  0  0  0  0  0  0  0  0  0
    4.7560    0.7660   20.0360 C   0  0  0  0  0  0  0  0  0  0  0  0
    4.4970    0.6260   22.1890 H   0  0  0  0  0  0  0  0  0  0  0  0
    2.6730    2.2520   22.3010 H   0  0  0  0  0  0  0  0  0  0  0  0
    1.8280    3.3520   20.2350 H   0  0  0  0  0  0  0  0  0  0  0  0
    2.8260    2.7750   18.0390 H   0  0  0  0  0  0  0  0  0  0  0  0
    4.4230    1.4550   16.7030 H   0  0  0  0  0  0  0  0  0  0  0  0
    7.0460   -1.1970   18.4390 H   0  0  0  0  0  0  0  0  0  0  0  0
    7.0970   -0.0990   21.9800 C   0  0  0  0  0  0  0  0  0  0  0  0
    7.2880    1.1030   21.9680 O   0  0  0  0  0  0  0  0  0  0  0  0
    7.4740   -1.0840   23.1040 C   0  0  1  0  0  0  0  0  0  0  0  0
    6.5370   -0.7730   24.2990 C   0  0  0  0  0  0  0  0  0  0  0  0
    6.9340   -1.4210   25.5380 N   0  0  0  0  0  0  0  0  0  0  0  0
    5.8970   -1.8900   26.4370 C   0  0  0  0  0  0  0  0  0  0  0  0
    5.0850   -0.7710   27.0840 C   0  0  0  0  0  0  0  0  0  0  0  0
    5.8690    0.0980   28.0020 N   0  3  0  0  0  0  0  0  0  0  0  0
    5.1700    1.4080   28.2390 C   0  0  0  0  0  0  0  0  0  0  0  0
    6.0440    2.3220   29.1170 C   0  0  0  0  0  0  0  0  0  0  0  0
    7.0940    1.6040   29.7180 O   0  0  0  0  0  0  0  0  0  0  0  0
    6.5630    0.4850   30.3900 C   0  0  0  0  0  0  0  0  0  0  0  0
    6.1830   -0.5870   29.3370 C   0  0  0  0  0  0  0  0  0  0  0  0
    7.0110   -1.2730   29.1380 H   0  0  0  0  0  0  0  0  0  0  0  0
    5.3120   -1.1690   29.6580 H   0  0  0  0  0  0  0  0  0  0  0  0
    5.6880    0.7940   30.9880 H   0  0  0  0  0  0  0  0  0  0  0  0
    7.3580    0.1480   31.0660 H   0  0  0  0  0  0  0  0  0  0  0  0
    6.5120    3.1280   28.5490 H   0  0  0  0  0  0  0  0  0  0  0  0
    5.4200    2.7640   29.9070 H   0  0  0  0  0  0  0  0  0  0  0  0
    4.2110    1.1970   28.7300 H   0  0  0  0  0  0  0  0  0  0  0  0
    4.9450    1.8700   27.2740 H   0  0  0  0  0  0  0  0  0  0  0  0
    6.7760    0.2850   27.5250 H   0  0  0  0  0  0  0  0  0  0  0  0
    4.2530   -1.2130   27.6500 H   0  0  0  0  0  0  0  0  0  0  0  0
    4.6400   -0.1400   26.3030 H   0  0  0  0  0  0  0  0  0  0  0  0
    5.1970   -2.5240   25.8800 H   0  0  0  0  0  0  0  0  0  0  0  0
    6.3910   -2.4930   27.1950 H   0  0  0  0  0  0  0  0  0  0  0  0
    8.2400   -1.5540   25.8990 C   0  0  0  0  0  0  0  0  0  0  0  0
    8.5710   -2.0070   26.9850 O   0  0  0  0  0  0  0  0  0  0  0  0
    9.2640   -1.1290   24.8960 C   0  0  0  0  0  0  0  0  0  0  0  0
   10.5950   -1.0340   25.3000 C   0  0  0  0  0  0  0  0  0  0  0  0
   11.5840   -0.7250   24.3830 C   0  0  0  0  0  0  0  0  0  0  0  0
   11.2310   -0.5320   23.0480 C   0  0  0  0  0  0  0  0  0  0  0  0
   12.4800   -0.1650   21.8950 Cl  0  0  0  0  0  0  0  0  0  0  0  0
    9.9150   -0.6290   22.6300 C   0  0  0  0  0  0  0  0  0  0  0  0
    8.9070   -0.9030   23.5630 C   0  0  0  0  0  0  0  0  0  0  0  0
    9.6730   -0.4790   21.5830 H   0  0  0  0  0  0  0  0  0  0  0  0
   12.6250   -0.6520   24.6760 H   0  0  0  0  0  0  0  0  0  0  0  0
   10.8220   -1.2320   26.3430 H   0  0  0  0  0  0  0  0  0  0  0  0
    6.5480    0.3220   24.4230 H   0  0  0  0  0  0  0  0  0  0  0  0
    5.5150   -1.1010   24.0580 H   0  0  0  0  0  0  0  0  0  0  0  0
    6.5100   -2.7870   20.3660 H   0  0  0  0  0  0  0  0  0  0  0  0
    5.2400   -2.4290   21.5380 H   0  0  0  0  0  0  0  0  0  0  0  0
    8.2280   -2.7460   22.0000 H   0  0  0  0  0  0  0  0  0  0  0  0
    6.7300   -4.5660   22.7690 H   0  0  0  0  0  0  0  0  0  0  0  0
    7.4600   -3.7700   24.1730 H   0  0  0  0  0  0  0  0  0  0  0  0
    5.7810   -3.4310   23.7320 H   0  0  0  0  0  0  0  0  0  0  0  0
  1  2  1  0  0  0  0
  1 64  1  0  0  0  0
  1 65  1  0  0  0  0
  1 66  1  0  0  0  0
  2  3  1  0  0  0  0
  2 23  1  0  0  0  0
  2 63  1  6  0  0  0
  3  4  1  0  0  0  0
  3 61  1  0  0  0  0
  3 62  1  0  0  0  0
  4  5  1  0  0  0  0
  4 21  1  0  0  0  0
  5  6  2  0  0  0  0
  5 14  1  0  0  0  0
  6  7  1  0  0  0  0
  6 20  1  0  0  0  0
  7  8  2  0  0  0  0
  8  9  1  0  0  0  0
  8 19  1  0  0  0  0
  9 10  2  0  0  0  0
  9 14  1  0  0  0  0
 10 11  1  0  0  0  0
 10 18  1  0  0  0  0
 11 12  2  0  0  0  0
 11 17  1  0  0  0  0
 12 13  1  0  0  0  0
 12 16  1  0  0  0  0
 13 14  2  0  0  0  0
 13 15  1  0  0  0  0
 21 22  2  0  0  0  0
 23 21  1  6  0  0  0
 23 24  1  0  0  0  0
 23 55  1  0  0  0  0
 24 25  1  0  0  0  0
 24 59  1  0  0  0  0
 24 60  1  0  0  0  0
 25 26  1  0  0  0  0
 25 47  1  0  0  0  0
 26 27  1  0  0  0  0
 26 45  1  0  0  0  0
 26 46  1  0  0  0  0
 27 28  1  0  0  0  0
 27 43  1  0  0  0  0
 27 44  1  0  0  0  0
 28 29  1  0  0  0  0
 28 33  1  0  0  0  0
 28 42  1  0  0  0  0
 29 30  1  0  0  0  0
 29 40  1  0  0  0  0
 29 41  1  0  0  0  0
 30 31  1  0  0  0  0
 30 38  1  0  0  0  0
 30 39  1  0  0  0  0
 31 32  1  0  0  0  0
 32 33  1  0  0  0  0
 32 36  1  0  0  0  0
 32 37  1  0  0  0  0
 33 34  1  0  0  0  0
 33 35  1  0  0  0  0
 47 48  2  0  0  0  0
 47 49  1  0  0  0  0
 49 50  2  0  0  0  0
 49 55  1  0  0  0  0
 50 51  1  0  0  0  0
 50 58  1  0  0  0  0
 51 52  2  0  0  0  0
 51 57  1  0  0  0  0
 52 53  1  0  0  0  0
 52 54  1  0  0  0  0
 54 55  2  0  0  0  0
 54 56  1  0  0  0  0
M  CHG  1  28   1
M  END
>  <MODEL>
       7

$$$$
best_conformers_64.pdb
 OpenBabel02042510453D

 66 71  0  0  1  0  0  0  0  0999 V2000
    6.6310   -3.5920   23.3880 C   0  0  0  0  0  0  0  0  0  0  0  0
    7.1530   -2.4750   22.4810 C   0  0  1  0  0  0  0  0  0  0  0  0
    6.2350   -2.2010   21.2790 C   0  0  0  0  0  0  0  0  0  0  0  0
    6.4510   -0.7960   20.9750 N   0  0  0  0  0  0  0  0  0  0  0  0
    5.8450   -0.1530   19.8660 C   0  0  0  0  0  0  0  0  0  0  0  0
    6.2590   -0.4580   18.5950 C   0  0  0  0  0  0  0  0  0  0  0  0
    5.7720    0.1140   17.4660 N   0  0  0  0  0  0  0  0  0  0  0  0
    4.8090    0.9950   17.6110 C   0  0  0  0  0  0  0  0  0  0  0  0
    4.2430    1.3650   18.8650 C   0  0  0  0  0  0  0  0  0  0  0  0
    3.1800    2.3100   18.9590 C   0  0  0  0  0  0  0  0  0  0  0  0
    2.6320    2.6200   20.1720 C   0  0  0  0  0  0  0  0  0  0  0  0
    3.1130    1.9980   21.3450 C   0  0  0  0  0  0  0  0  0  0  0  0
    4.1390    1.0930   21.2810 C   0  0  0  0  0  0  0  0  0  0  0  0
    4.7550    0.7660   20.0370 C   0  0  0  0  0  0  0  0  0  0  0  0
    4.4990    0.6230   22.1910 H   0  0  0  0  0  0  0  0  0  0  0  0
    2.6760    2.2490   22.3110 H   0  0  0  0  0  0  0  0  0  0  0  0
    1.8270    3.3520   20.2380 H   0  0  0  0  0  0  0  0  0  0  0  0
    2.8230    2.7760   18.0430 H   0  0  0  0  0  0  0  0  0  0  0  0
    4.4220    1.4570   16.7020 H   0  0  0  0  0  0  0  0  0  0  0  0
    7.0440   -1.1980   18.4400 H   0  0  0  0  0  0  0  0  0  0  0  0
    7.0810   -0.0990   21.9810 C   0  0  0  0  0  0  0  0  0  0  0  0
    7.3070    1.0950   21.9470 O   0  0  0  0  0  0  0  0  0  0  0  0
    7.3800   -1.0680   23.1410 C   0  0  1  0  0  0  0  0  0  0  0  0
    6.3830   -0.7120   24.2760 C   0  0  0  0  0  0  0  0  0  0  0  0
    6.6930   -1.3580   25.5370 N   0  0  0  0  0  0  0  0  0  0  0  0
    5.6360   -1.9190   26.3670 C   0  0  0  0  0  0  0  0  0  0  0  0
    5.3010   -1.1040   27.6130 C   0  0  0  0  0  0  0  0  0  0  0  0
    4.8710    0.2840   27.3160 N   0  3  0  0  0  0  0  0  0  0  0  0
    3.5680    0.3380   26.5340 C   0  0  0  0  0  0  0  0  0  0  0  0
    2.9960    1.7650   26.5810 C   0  0  0  0  0  0  0  0  0  0  0  0
    4.0160    2.6870   26.8880 O   0  0  0  0  0  0  0  0  0  0  0  0
    4.4310    2.5630   28.2290 C   0  0  0  0  0  0  0  0  0  0  0  0
    4.7820    1.1040   28.5750 C   0  0  0  0  0  0  0  0  0  0  0  0
    4.0180    0.6600   29.2260 H   0  0  0  0  0  0  0  0  0  0  0  0
    5.7380    1.0380   29.1020 H   0  0  0  0  0  0  0  0  0  0  0  0
    3.6450    2.9180   28.9140 H   0  0  0  0  0  0  0  0  0  0  0  0
    5.2890    3.2320   28.3250 H   0  0  0  0  0  0  0  0  0  0  0  0
    2.6020    2.0630   25.6050 H   0  0  0  0  0  0  0  0  0  0  0  0
    2.1830    1.8340   27.3180 H   0  0  0  0  0  0  0  0  0  0  0  0
    3.7810    0.0570   25.5000 H   0  0  0  0  0  0  0  0  0  0  0  0
    2.8680   -0.3910   26.9550 H   0  0  0  0  0  0  0  0  0  0  0  0
    5.6160    0.6930   26.7170 H   0  0  0  0  0  0  0  0  0  0  0  0
    6.1680   -1.0690   28.2810 H   0  0  0  0  0  0  0  0  0  0  0  0
    4.4910   -1.6170   28.1500 H   0  0  0  0  0  0  0  0  0  0  0  0
    5.9470   -2.9080   26.7080 H   0  0  0  0  0  0  0  0  0  0  0  0
    4.7410   -2.0250   25.7450 H   0  0  0  0  0  0  0  0  0  0  0  0
    7.9730   -1.5220   25.9760 C   0  0  0  0  0  0  0  0  0  0  0  0
    8.2090   -2.0180   27.0670 O   0  0  0  0  0  0  0  0  0  0  0  0
    9.0670   -1.1160   25.0340 C   0  0  0  0  0  0  0  0  0  0  0  0
   10.3780   -1.0430   25.5020 C   0  0  0  0  0  0  0  0  0  0  0  0
   11.4230   -0.7750   24.6350 C   0  0  0  0  0  0  0  0  0  0  0  0
   11.1460   -0.6020   23.2790 C   0  0  0  0  0  0  0  0  0  0  0  0
   12.4570   -0.2830   22.1790 Cl  0  0  0  0  0  0  0  0  0  0  0  0
    9.8510   -0.6780   22.7950 C   0  0  0  0  0  0  0  0  0  0  0  0
    8.7890   -0.9080   23.6780 C   0  0  0  0  0  0  0  0  0  0  0  0
    9.6720   -0.5450   21.7340 H   0  0  0  0  0  0  0  0  0  0  0  0
   12.4490   -0.7200   24.9820 H   0  0  0  0  0  0  0  0  0  0  0  0
   10.5540   -1.2270   26.5580 H   0  0  0  0  0  0  0  0  0  0  0  0
    6.4310    0.3830   24.3860 H   0  0  0  0  0  0  0  0  0  0  0  0
    5.3620   -1.0000   23.9770 H   0  0  0  0  0  0  0  0  0  0  0  0
    5.1810   -2.3960   21.5270 H   0  0  0  0  0  0  0  0  0  0  0  0
    6.4830   -2.8130   20.4110 H   0  0  0  0  0  0  0  0  0  0  0  0
    8.1420   -2.7680   22.0990 H   0  0  0  0  0  0  0  0  0  0  0  0
    5.6270   -3.3640   23.7650 H   0  0  0  0  0  0  0  0  0  0  0  0
    7.2830   -3.7420   24.2540 H   0  0  0  0  0  0  0  0  0  0  0  0
    6.5700   -4.5380   22.8430 H   0  0  0  0  0  0  0  0  0  0  0  0
  1  2  1  0  0  0  0
  1 64  1  0  0  0  0
  1 65  1  0  0  0  0
  1 66  1  0  0  0  0
  2  3  1  0  0  0  0
  2 23  1  0  0  0  0
  2 63  1  6  0  0  0
  3  4  1  0  0  0  0
  3 61  1  0  0  0  0
  3 62  1  0  0  0  0
  4  5  1  0  0  0  0
  4 21  1  0  0  0  0
  5  6  2  0  0  0  0
  5 14  1  0  0  0  0
  6  7  1  0  0  0  0
  6 20  1  0  0  0  0
  7  8  2  0  0  0  0
  8  9  1  0  0  0  0
  8 19  1  0  0  0  0
  9 10  2  0  0  0  0
  9 14  1  0  0  0  0
 10 11  1  0  0  0  0
 10 18  1  0  0  0  0
 11 12  2  0  0  0  0
 11 17  1  0  0  0  0
 12 13  1  0  0  0  0
 12 16  1  0  0  0  0
 13 14  2  0  0  0  0
 13 15  1  0  0  0  0
 21 22  2  0  0  0  0
 23 21  1  6  0  0  0
 23 24  1  0  0  0  0
 23 55  1  0  0  0  0
 24 25  1  0  0  0  0
 24 59  1  0  0  0  0
 24 60  1  0  0  0  0
 25 26  1  0  0  0  0
 25 47  1  0  0  0  0
 26 27  1  0  0  0  0
 26 45  1  0  0  0  0
 26 46  1  0  0  0  0
 27 28  1  0  0  0  0
 27 43  1  0  0  0  0
 27 44  1  0  0  0  0
 28 29  1  0  0  0  0
 28 33  1  0  0  0  0
 28 42  1  0  0  0  0
 29 30  1  0  0  0  0
 29 40  1  0  0  0  0
 29 41  1  0  0  0  0
 30 31  1  0  0  0  0
 30 38  1  0  0  0  0
 30 39  1  0  0  0  0
 31 32  1  0  0  0  0
 32 33  1  0  0  0  0
 32 36  1  0  0  0  0
 32 37  1  0  0  0  0
 33 34  1  0  0  0  0
 33 35  1  0  0  0  0
 47 48  2  0  0  0  0
 47 49  1  0  0  0  0
 49 50  2  0  0  0  0
 49 55  1  0  0  0  0
 50 51  1  0  0  0  0
 50 58  1  0  0  0  0
 51 52  2  0  0  0  0
 51 57  1  0  0  0  0
 52 53  1  0  0  0  0
 52 54  1  0  0  0  0
 54 55  2  0  0  0  0
 54 56  1  0  0  0  0
M  CHG  1  28   1
M  END
>  <MODEL>
       8

$$$$
