best_conformers_22.pdb
 OpenBabel02042510453D

 41 44  0  0  0  0  0  0  0  0999 V2000
    4.4980   -2.2680   21.2370 O   0  0  0  0  0  0  0  0  0  0  0  0
    5.6840   -2.1590   21.4780 C   0  0  0  0  0  0  0  0  0  0  0  0
    6.4660   -0.9010   21.0230 C   0  0  0  0  0  0  0  0  0  0  0  0
    5.8130   -0.1830   19.8560 C   0  0  0  0  0  0  0  0  0  0  0  0
    6.2320   -0.4440   18.5770 C   0  0  0  0  0  0  0  0  0  0  0  0
    5.7530    0.1320   17.4410 N   0  0  0  0  0  0  0  0  0  0  0  0
    4.7880    1.0110   17.5860 C   0  0  0  0  0  0  0  0  0  0  0  0
    4.2290    1.3740   18.8390 C   0  0  0  0  0  0  0  0  0  0  0  0
    3.1750    2.3210   18.9400 C   0  0  0  0  0  0  0  0  0  0  0  0
    2.6390    2.6390   20.1590 C   0  0  0  0  0  0  0  0  0  0  0  0
    3.1390    2.0210   21.3290 C   0  0  0  0  0  0  0  0  0  0  0  0
    4.1630    1.1070   21.2570 C   0  0  0  0  0  0  0  0  0  0  0  0
    4.7450    0.7600   20.0090 C   0  0  0  0  0  0  0  0  0  0  0  0
    4.5250    0.6270   22.1610 H   0  0  0  0  0  0  0  0  0  0  0  0
    2.7080    2.2780   22.2920 H   0  0  0  0  0  0  0  0  0  0  0  0
    1.8320    3.3650   20.2380 H   0  0  0  0  0  0  0  0  0  0  0  0
    2.8020    2.7890   18.0300 H   0  0  0  0  0  0  0  0  0  0  0  0
    4.4010    1.4850   16.6800 H   0  0  0  0  0  0  0  0  0  0  0  0
    7.0170   -1.1780   18.4010 H   0  0  0  0  0  0  0  0  0  0  0  0
    6.5710   -0.2170   21.8780 H   0  0  0  0  0  0  0  0  0  0  0  0
    7.4890   -1.1910   20.7400 H   0  0  0  0  0  0  0  0  0  0  0  0
    6.3420   -3.1750   22.1330 N   0  0  0  0  0  0  0  0  0  0  0  0
    7.6440   -3.0120   22.7420 C   0  0  0  0  0  0  0  0  0  0  0  0
    7.8310   -3.9600   23.9200 C   0  0  0  0  0  0  0  0  0  0  0  0
    7.5690   -5.3840   23.5250 C   0  0  0  0  0  0  0  0  0  0  0  0
    8.2910   -6.4720   24.0170 C   0  0  0  0  0  0  0  0  0  0  0  0
    9.6130   -6.1970   25.1160 Cl  0  0  0  0  0  0  0  0  0  0  0  0
    8.0100   -7.7810   23.6510 C   0  0  0  0  0  0  0  0  0  0  0  0
    6.9630   -8.0000   22.7690 C   0  0  0  0  0  0  0  0  0  0  0  0
    6.2180   -6.9340   22.2760 C   0  0  0  0  0  0  0  0  0  0  0  0
    6.5160   -5.6230   22.6430 C   0  0  0  0  0  0  0  0  0  0  0  0
    5.6600   -4.4690   22.1620 C   0  0  0  0  0  0  0  0  0  0  0  0
    5.2900   -4.7030   21.1630 H   0  0  0  0  0  0  0  0  0  0  0  0
    4.7530   -4.3950   22.7720 H   0  0  0  0  0  0  0  0  0  0  0  0
    5.3830   -7.1370   21.6120 H   0  0  0  0  0  0  0  0  0  0  0  0
    6.7450   -9.0180   22.4740 H   0  0  0  0  0  0  0  0  0  0  0  0
    8.5950   -8.6040   24.0530 H   0  0  0  0  0  0  0  0  0  0  0  0
    8.8440   -3.8450   24.3010 H   0  0  0  0  0  0  0  0  0  0  0  0
    7.1600   -3.6770   24.7370 H   0  0  0  0  0  0  0  0  0  0  0  0
    7.7400   -1.9810   23.0890 H   0  0  0  0  0  0  0  0  0  0  0  0
    8.4320   -3.1920   22.0000 H   0  0  0  0  0  0  0  0  0  0  0  0
  1  2  2  0  0  0  0
  2  3  1  0  0  0  0
  2 22  1  0  0  0  0
  3  4  1  0  0  0  0
  3 20  1  0  0  0  0
  3 21  1  0  0  0  0
  4  5  2  0  0  0  0
  4 13  1  0  0  0  0
  5  6  1  0  0  0  0
  5 19  1  0  0  0  0
  6  7  2  0  0  0  0
  7  8  1  0  0  0  0
  7 18  1  0  0  0  0
  8  9  2  0  0  0  0
  8 13  1  0  0  0  0
  9 10  1  0  0  0  0
  9 17  1  0  0  0  0
 10 11  2  0  0  0  0
 10 16  1  0  0  0  0
 11 12  1  0  0  0  0
 11 15  1  0  0  0  0
 12 13  2  0  0  0  0
 12 14  1  0  0  0  0
 22 23  1  0  0  0  0
 22 32  1  0  0  0  0
 23 24  1  0  0  0  0
 23 40  1  0  0  0  0
 23 41  1  0  0  0  0
 24 25  1  0  0  0  0
 24 38  1  0  0  0  0
 24 39  1  0  0  0  0
 25 26  2  0  0  0  0
 25 31  1  0  0  0  0
 26 27  1  0  0  0  0
 26 28  1  0  0  0  0
 28 29  2  0  0  0  0
 28 37  1  0  0  0  0
 29 30  1  0  0  0  0
 29 36  1  0  0  0  0
 30 31  2  0  0  0  0
 30 35  1  0  0  0  0
 31 32  1  0  0  0  0
 32 33  1  0  0  0  0
 32 34  1  0  0  0  0
M  END
>  <MODEL>
       1

$$$$
best_conformers_22.pdb
 OpenBabel02042510453D

 41 44  0  0  0  0  0  0  0  0999 V2000
    7.5220    1.2600   21.5910 O   0  0  0  0  0  0  0  0  0  0  0  0
    7.5640    0.0490   21.7200 C   0  0  0  0  0  0  0  0  0  0  0  0
    6.5030   -0.8490   21.0300 C   0  0  0  0  0  0  0  0  0  0  0  0
    5.8170   -0.1760   19.8560 C   0  0  0  0  0  0  0  0  0  0  0  0
    6.2350   -0.4400   18.5770 C   0  0  0  0  0  0  0  0  0  0  0  0
    5.7570    0.1380   17.4420 N   0  0  0  0  0  0  0  0  0  0  0  0
    4.7880    1.0110   17.5860 C   0  0  0  0  0  0  0  0  0  0  0  0
    4.2320    1.3780   18.8390 C   0  0  0  0  0  0  0  0  0  0  0  0
    3.1810    2.3280   18.9400 C   0  0  0  0  0  0  0  0  0  0  0  0
    2.6600    2.6630   20.1610 C   0  0  0  0  0  0  0  0  0  0  0  0
    3.1750    2.0610   21.3330 C   0  0  0  0  0  0  0  0  0  0  0  0
    4.1950    1.1430   21.2610 C   0  0  0  0  0  0  0  0  0  0  0  0
    4.7570    0.7740   20.0110 C   0  0  0  0  0  0  0  0  0  0  0  0
    4.5950    0.7060   22.1710 H   0  0  0  0  0  0  0  0  0  0  0  0
    2.7620    2.3380   22.2990 H   0  0  0  0  0  0  0  0  0  0  0  0
    1.8590    3.3950   20.2410 H   0  0  0  0  0  0  0  0  0  0  0  0
    2.8020    2.7890   18.0300 H   0  0  0  0  0  0  0  0  0  0  0  0
    4.3990    1.4840   16.6800 H   0  0  0  0  0  0  0  0  0  0  0  0
    7.0250   -1.1690   18.4010 H   0  0  0  0  0  0  0  0  0  0  0  0
    5.7570   -1.1570   21.7760 H   0  0  0  0  0  0  0  0  0  0  0  0
    6.9830   -1.7750   20.6800 H   0  0  0  0  0  0  0  0  0  0  0  0
    8.5660   -0.5470   22.4600 N   0  0  0  0  0  0  0  0  0  0  0  0
    8.5260   -1.9300   22.9060 C   0  0  0  0  0  0  0  0  0  0  0  0
    9.3300   -2.1420   24.1850 C   0  0  0  0  0  0  0  0  0  0  0  0
   10.7430   -1.6550   24.0360 C   0  0  0  0  0  0  0  0  0  0  0  0
   11.8540   -2.2790   24.6120 C   0  0  0  0  0  0  0  0  0  0  0  0
   11.6440   -3.7190   25.5730 Cl  0  0  0  0  0  0  0  0  0  0  0  0
   13.1430   -1.7850   24.4660 C   0  0  0  0  0  0  0  0  0  0  0  0
   13.3180   -0.6170   23.7370 C   0  0  0  0  0  0  0  0  0  0  0  0
   12.2270    0.0310   23.1710 C   0  0  0  0  0  0  0  0  0  0  0  0
   10.9370   -0.4810   23.3080 C   0  0  0  0  0  0  0  0  0  0  0  0
    9.7460    0.2740   22.7480 C   0  0  0  0  0  0  0  0  0  0  0  0
    9.4680    1.0850   23.4310 H   0  0  0  0  0  0  0  0  0  0  0  0
   10.0580    0.7850   21.8360 H   0  0  0  0  0  0  0  0  0  0  0  0
   12.3920    0.9550   22.6250 H   0  0  0  0  0  0  0  0  0  0  0  0
   14.3150   -0.2130   23.6190 H   0  0  0  0  0  0  0  0  0  0  0  0
   13.9820   -2.3040   24.9230 H   0  0  0  0  0  0  0  0  0  0  0  0
    9.3150   -3.2010   24.4420 H   0  0  0  0  0  0  0  0  0  0  0  0
    8.8490   -1.6180   25.0180 H   0  0  0  0  0  0  0  0  0  0  0  0
    8.9170   -2.5960   22.1250 H   0  0  0  0  0  0  0  0  0  0  0  0
    7.4860   -2.2100   23.0900 H   0  0  0  0  0  0  0  0  0  0  0  0
  1  2  2  0  0  0  0
  2  3  1  0  0  0  0
  2 22  1  0  0  0  0
  3  4  1  0  0  0  0
  3 20  1  0  0  0  0
  3 21  1  0  0  0  0
  4  5  2  0  0  0  0
  4 13  1  0  0  0  0
  5  6  1  0  0  0  0
  5 19  1  0  0  0  0
  6  7  2  0  0  0  0
  7  8  1  0  0  0  0
  7 18  1  0  0  0  0
  8  9  2  0  0  0  0
  8 13  1  0  0  0  0
  9 10  1  0  0  0  0
  9 17  1  0  0  0  0
 10 11  2  0  0  0  0
 10 16  1  0  0  0  0
 11 12  1  0  0  0  0
 11 15  1  0  0  0  0
 12 13  2  0  0  0  0
 12 14  1  0  0  0  0
 22 23  1  0  0  0  0
 22 32  1  0  0  0  0
 23 24  1  0  0  0  0
 23 40  1  0  0  0  0
 23 41  1  0  0  0  0
 24 25  1  0  0  0  0
 24 38  1  0  0  0  0
 24 39  1  0  0  0  0
 25 26  2  0  0  0  0
 25 31  1  0  0  0  0
 26 27  1  0  0  0  0
 26 28  1  0  0  0  0
 28 29  2  0  0  0  0
 28 37  1  0  0  0  0
 29 30  1  0  0  0  0
 29 36  1  0  0  0  0
 30 31  2  0  0  0  0
 30 35  1  0  0  0  0
 31 32  1  0  0  0  0
 32 33  1  0  0  0  0
 32 34  1  0  0  0  0
M  END
>  <MODEL>
       2

$$$$
