best_conformers_93.pdb
 OpenBabel02042510453D

 58 62  0  0  1  0  0  0  0  0999 V2000
    1.7700   -5.8630   22.9890 C   0  0  0  0  0  0  0  0  0  0  0  0
    2.8840   -5.0890   22.4030 N   0  3  0  0  0  0  0  0  0  0  0  0
    4.1490   -5.8520   22.2550 C   0  0  0  0  0  0  0  0  0  0  0  0
    5.0270   -5.7000   23.4940 C   0  0  0  0  0  0  0  0  0  0  0  0
    5.3180   -4.2880   23.7340 N   0  0  0  0  0  0  0  0  0  0  0  0
    6.5350   -3.7480   23.1610 C   0  0  0  0  0  0  0  0  0  0  0  0
    6.5040   -2.2210   22.9000 C   0  0  2  0  0  0  0  0  0  0  0  0
    5.7110   -1.9350   21.6070 C   0  0  0  0  0  0  0  0  0  0  0  0
    4.7010   -2.4990   21.2300 O   0  0  0  0  0  0  0  0  0  0  0  0
    6.3750   -0.9520   20.9090 N   0  0  0  0  0  0  0  0  0  0  0  0
    5.8060   -0.2660   19.8100 C   0  0  0  0  0  0  0  0  0  0  0  0
    6.3180   -0.4570   18.5530 C   0  0  0  0  0  0  0  0  0  0  0  0
    5.8510    0.1430   17.4300 N   0  0  0  0  0  0  0  0  0  0  0  0
    4.8460    0.9740   17.5800 C   0  0  0  0  0  0  0  0  0  0  0  0
    4.2540    1.3060   18.8320 C   0  0  0  0  0  0  0  0  0  0  0  0
    3.2230    2.2790   18.9340 C   0  0  0  0  0  0  0  0  0  0  0  0
    2.7210    2.6300   20.1540 C   0  0  0  0  0  0  0  0  0  0  0  0
    3.2240    2.0260   21.3320 C   0  0  0  0  0  0  0  0  0  0  0  0
    4.2100    1.0720   21.2630 C   0  0  0  0  0  0  0  0  0  0  0  0
    4.7470    0.6810   20.0000 C   0  0  0  0  0  0  0  0  0  0  0  0
    4.5860    0.6160   22.1800 H   0  0  0  0  0  0  0  0  0  0  0  0
    2.8250    2.3330   22.2960 H   0  0  0  0  0  0  0  0  0  0  0  0
    1.9410    3.3850   20.2290 H   0  0  0  0  0  0  0  0  0  0  0  0
    2.8550    2.7340   18.0160 H   0  0  0  0  0  0  0  0  0  0  0  0
    4.4580    1.4470   16.6780 H   0  0  0  0  0  0  0  0  0  0  0  0
    7.1540   -1.1410   18.4110 H   0  0  0  0  0  0  0  0  0  0  0  0
    7.6970   -0.6310   21.4050 C   0  0  0  0  0  0  0  0  0  0  0  0
    7.9230   -1.6420   22.5560 C   0  0  2  0  0  0  0  0  0  0  0  0
    8.9700   -2.6920   22.1610 C   0  0  0  0  0  0  0  0  0  0  0  0
    9.9170   -2.2100   21.8960 H   0  0  0  0  0  0  0  0  0  0  0  0
    8.6450   -3.2850   21.3010 H   0  0  0  0  0  0  0  0  0  0  0  0
    9.1760   -3.3760   22.9880 H   0  0  0  0  0  0  0  0  0  0  0  0
    8.3130   -1.1220   23.4370 H   0  0  0  0  0  0  0  0  0  0  0  0
    8.4400   -0.7440   20.6050 H   0  0  0  0  0  0  0  0  0  0  0  0
    7.7450    0.4180   21.7360 H   0  0  0  0  0  0  0  0  0  0  0  0
    5.8770   -1.5140   24.1000 C   0  0  0  0  0  0  0  0  0  0  0  0
    6.1780   -0.1810   24.4240 C   0  0  0  0  0  0  0  0  0  0  0  0
    5.6500    0.3700   25.5760 C   0  0  0  0  0  0  0  0  0  0  0  0
    5.9950    1.6250   25.9130 F   0  0  0  0  0  0  0  0  0  0  0  0
    4.7920   -0.3180   26.4220 C   0  0  0  0  0  0  0  0  0  0  0  0
    4.4350   -1.6020   26.0610 C   0  0  0  0  0  0  0  0  0  0  0  0
    4.9580   -2.1940   24.9100 C   0  0  0  0  0  0  0  0  0  0  0  0
    4.4940   -3.5620   24.5270 C   0  0  0  0  0  0  0  0  0  0  0  0
    3.3980   -4.0090   24.8750 O   0  0  0  0  0  0  0  0  0  0  0  0
    3.7540   -2.1780   26.6760 H   0  0  0  0  0  0  0  0  0  0  0  0
    4.4240    0.1630   27.3230 H   0  0  0  0  0  0  0  0  0  0  0  0
    6.8470    0.4410   23.8360 H   0  0  0  0  0  0  0  0  0  0  0  0
    7.3780   -3.9810   23.8200 H   0  0  0  0  0  0  0  0  0  0  0  0
    6.6970   -4.2500   22.2050 H   0  0  0  0  0  0  0  0  0  0  0  0
    4.5460   -6.0990   24.3940 H   0  0  0  0  0  0  0  0  0  0  0  0
    5.9670   -6.2400   23.3440 H   0  0  0  0  0  0  0  0  0  0  0  0
    4.6790   -5.4590   21.3880 H   0  0  0  0  0  0  0  0  0  0  0  0
    3.9240   -6.9010   22.0630 H   0  0  0  0  0  0  0  0  0  0  0  0
    2.6000   -4.6670   21.5020 H   0  0  0  0  0  0  0  0  0  0  0  0
    3.0520   -4.2890   23.0310 H   0  0  0  0  0  0  0  0  0  0  0  0
    1.6800   -6.8380   22.5120 H   0  0  0  0  0  0  0  0  0  0  0  0
    1.9390   -6.0110   24.0550 H   0  0  0  0  0  0  0  0  0  0  0  0
    0.8350   -5.3200   22.8580 H   0  0  0  0  0  0  0  0  0  0  0  0
  1  2  1  0  0  0  0
  1 56  1  0  0  0  0
  1 57  1  0  0  0  0
  1 58  1  0  0  0  0
  2  3  1  0  0  0  0
  2 54  1  0  0  0  0
  2 55  1  0  0  0  0
  3  4  1  0  0  0  0
  3 52  1  0  0  0  0
  3 53  1  0  0  0  0
  4  5  1  0  0  0  0
  4 50  1  0  0  0  0
  4 51  1  0  0  0  0
  5  6  1  0  0  0  0
  5 43  1  0  0  0  0
  6  7  1  0  0  0  0
  6 48  1  0  0  0  0
  6 49  1  0  0  0  0
  7  8  1  6  0  0  0
  7 28  1  0  0  0  0
  7 36  1  0  0  0  0
  8  9  2  0  0  0  0
  8 10  1  0  0  0  0
 10 11  1  0  0  0  0
 10 27  1  0  0  0  0
 11 12  2  0  0  0  0
 11 20  1  0  0  0  0
 12 13  1  0  0  0  0
 12 26  1  0  0  0  0
 13 14  2  0  0  0  0
 14 15  1  0  0  0  0
 14 25  1  0  0  0  0
 15 16  2  0  0  0  0
 15 20  1  0  0  0  0
 16 17  1  0  0  0  0
 16 24  1  0  0  0  0
 17 18  2  0  0  0  0
 17 23  1  0  0  0  0
 18 19  1  0  0  0  0
 18 22  1  0  0  0  0
 19 20  2  0  0  0  0
 19 21  1  0  0  0  0
 27 28  1  0  0  0  0
 27 34  1  0  0  0  0
 27 35  1  0  0  0  0
 28 29  1  0  0  0  0
 28 33  1  1  0  0  0
 29 30  1  0  0  0  0
 29 31  1  0  0  0  0
 29 32  1  0  0  0  0
 36 37  2  0  0  0  0
 36 42  1  0  0  0  0
 37 38  1  0  0  0  0
 37 47  1  0  0  0  0
 38 39  1  0  0  0  0
 38 40  2  0  0  0  0
 40 41  1  0  0  0  0
 40 46  1  0  0  0  0
 41 42  2  0  0  0  0
 41 45  1  0  0  0  0
 42 43  1  0  0  0  0
 43 44  2  0  0  0  0
M  CHG  1   2   1
M  END
>  <MODEL>
       1

$$$$
