best_conformers_9.pdb
 OpenBabel02042510453D

 58 63  0  0  1  0  0  0  0  0999 V2000
    5.2280    1.3490   30.2360 C   0  0  0  0  0  0  0  0  0  0  0  0
    5.1450    0.5760   28.9520 C   0  0  0  0  0  0  0  0  0  0  0  0
    5.9100   -0.5750   28.6080 C   0  0  0  0  0  0  0  0  0  0  0  0
    5.4980   -0.8780   27.3550 C   0  0  0  0  0  0  0  0  0  0  0  0
    5.9270   -1.9500   26.4000 C   0  0  0  0  0  0  0  0  0  0  0  0
    6.9450   -1.5270   25.4540 N   0  0  0  0  0  0  0  0  0  0  0  0
    6.5430   -0.7940   24.2710 C   0  0  0  0  0  0  0  0  0  0  0  0
    7.4820   -1.0760   23.0820 C   0  0  2  0  0  0  0  0  0  0  0  0
    7.1010   -0.0880   21.9650 C   0  0  0  0  0  0  0  0  0  0  0  0
    7.2840    1.1110   21.9520 O   0  0  0  0  0  0  0  0  0  0  0  0
    6.4530   -0.7880   20.9730 N   0  0  0  0  0  0  0  0  0  0  0  0
    5.8470   -0.1510   19.8630 C   0  0  0  0  0  0  0  0  0  0  0  0
    6.2620   -0.4580   18.5940 C   0  0  0  0  0  0  0  0  0  0  0  0
    5.7730    0.1140   17.4640 N   0  0  0  0  0  0  0  0  0  0  0  0
    4.8100    0.9930   17.6130 C   0  0  0  0  0  0  0  0  0  0  0  0
    4.2430    1.3640   18.8620 C   0  0  0  0  0  0  0  0  0  0  0  0
    3.1810    2.3070   18.9560 C   0  0  0  0  0  0  0  0  0  0  0  0
    2.6290    2.6210   20.1660 C   0  0  0  0  0  0  0  0  0  0  0  0
    3.1120    1.9970   21.3430 C   0  0  0  0  0  0  0  0  0  0  0  0
    4.1390    1.0920   21.2780 C   0  0  0  0  0  0  0  0  0  0  0  0
    4.7560    0.7660   20.0350 C   0  0  0  0  0  0  0  0  0  0  0  0
    4.4980    0.6260   22.1900 H   0  0  0  0  0  0  0  0  0  0  0  0
    2.6720    2.2510   22.3030 H   0  0  0  0  0  0  0  0  0  0  0  0
    1.8260    3.3510   20.2360 H   0  0  0  0  0  0  0  0  0  0  0  0
    2.8250    2.7740   18.0400 H   0  0  0  0  0  0  0  0  0  0  0  0
    4.4240    1.4540   16.7040 H   0  0  0  0  0  0  0  0  0  0  0  0
    7.0470   -1.1980   18.4350 H   0  0  0  0  0  0  0  0  0  0  0  0
    6.2900   -2.2040   21.2520 C   0  0  0  0  0  0  0  0  0  0  0  0
    7.2690   -2.4780   22.4040 C   0  0  2  0  0  0  0  0  0  0  0  0
    6.8190   -3.6340   23.3070 C   0  0  0  0  0  0  0  0  0  0  0  0
    7.5100   -3.7820   24.1430 H   0  0  0  0  0  0  0  0  0  0  0  0
    6.7590   -4.5730   22.7450 H   0  0  0  0  0  0  0  0  0  0  0  0
    5.8260   -3.4420   23.7330 H   0  0  0  0  0  0  0  0  0  0  0  0
    8.2510   -2.7330   21.9800 H   0  0  0  0  0  0  0  0  0  0  0  0
    5.2530   -2.4390   21.5400 H   0  0  0  0  0  0  0  0  0  0  0  0
    6.5140   -2.7830   20.3550 H   0  0  0  0  0  0  0  0  0  0  0  0
    8.9100   -0.8830   23.5510 C   0  0  0  0  0  0  0  0  0  0  0  0
    9.9190   -0.6120   22.6220 C   0  0  0  0  0  0  0  0  0  0  0  0
   11.2250   -0.5080   23.0580 C   0  0  0  0  0  0  0  0  0  0  0  0
   12.1850   -0.2260   22.1640 F   0  0  0  0  0  0  0  0  0  0  0  0
   11.5880   -0.6840   24.3900 C   0  0  0  0  0  0  0  0  0  0  0  0
   10.5930   -0.9860   25.3010 C   0  0  0  0  0  0  0  0  0  0  0  0
    9.2650   -1.0950   24.8870 C   0  0  0  0  0  0  0  0  0  0  0  0
    8.2450   -1.5550   25.8750 C   0  0  0  0  0  0  0  0  0  0  0  0
    8.5560   -1.9750   26.9770 O   0  0  0  0  0  0  0  0  0  0  0  0
   10.8170   -1.1790   26.3460 H   0  0  0  0  0  0  0  0  0  0  0  0
   12.6330   -0.6000   24.6640 H   0  0  0  0  0  0  0  0  0  0  0  0
    9.6990   -0.4680   21.5700 H   0  0  0  0  0  0  0  0  0  0  0  0
    5.5120   -1.0960   24.0340 H   0  0  0  0  0  0  0  0  0  0  0  0
    6.5700    0.2900   24.4530 H   0  0  0  0  0  0  0  0  0  0  0  0
    5.0540   -2.3170   25.8480 H   0  0  0  0  0  0  0  0  0  0  0  0
    6.3640   -2.7590   26.9830 H   0  0  0  0  0  0  0  0  0  0  0  0
    4.5470   -0.0160   26.9730 O   0  0  0  0  0  0  0  0  0  0  0  0
    4.3260    0.9040   27.9810 N   0  0  0  0  0  0  0  0  0  0  0  0
    6.6680   -1.0890   29.1830 H   0  0  0  0  0  0  0  0  0  0  0  0
    4.8960    2.3870   30.1280 H   0  0  0  0  0  0  0  0  0  0  0  0
    4.6210    0.8640   31.0090 H   0  0  0  0  0  0  0  0  0  0  0  0
    6.2650    1.3400   30.5870 H   0  0  0  0  0  0  0  0  0  0  0  0
  1  2  1  0  0  0  0
  1 56  1  0  0  0  0
  1 57  1  0  0  0  0
  1 58  1  0  0  0  0
  2  3  1  0  0  0  0
  2 54  2  0  0  0  0
  3  4  2  0  0  0  0
  3 55  1  0  0  0  0
  4  5  1  0  0  0  0
  4 53  1  0  0  0  0
  5  6  1  0  0  0  0
  5 51  1  0  0  0  0
  5 52  1  0  0  0  0
  6  7  1  0  0  0  0
  6 44  1  0  0  0  0
  7  8  1  0  0  0  0
  7 49  1  0  0  0  0
  7 50  1  0  0  0  0
  8  9  1  6  0  0  0
  8 29  1  0  0  0  0
  8 37  1  0  0  0  0
  9 10  2  0  0  0  0
  9 11  1  0  0  0  0
 11 12  1  0  0  0  0
 11 28  1  0  0  0  0
 12 13  2  0  0  0  0
 12 21  1  0  0  0  0
 13 14  1  0  0  0  0
 13 27  1  0  0  0  0
 14 15  2  0  0  0  0
 15 16  1  0  0  0  0
 15 26  1  0  0  0  0
 16 17  2  0  0  0  0
 16 21  1  0  0  0  0
 17 18  1  0  0  0  0
 17 25  1  0  0  0  0
 18 19  2  0  0  0  0
 18 24  1  0  0  0  0
 19 20  1  0  0  0  0
 19 23  1  0  0  0  0
 20 21  2  0  0  0  0
 20 22  1  0  0  0  0
 28 29  1  0  0  0  0
 28 35  1  0  0  0  0
 28 36  1  0  0  0  0
 29 30  1  0  0  0  0
 29 34  1  6  0  0  0
 30 31  1  0  0  0  0
 30 32  1  0  0  0  0
 30 33  1  0  0  0  0
 37 38  2  0  0  0  0
 37 43  1  0  0  0  0
 38 39  1  0  0  0  0
 38 48  1  0  0  0  0
 39 40  1  0  0  0  0
 39 41  2  0  0  0  0
 41 42  1  0  0  0  0
 41 47  1  0  0  0  0
 42 43  2  0  0  0  0
 42 46  1  0  0  0  0
 43 44  1  0  0  0  0
 44 45  2  0  0  0  0
 53 54  1  0  0  0  0
M  END
>  <MODEL>
       1

$$$$
best_conformers_9.pdb
 OpenBabel02042510453D

 58 63  0  0  1  0  0  0  0  0999 V2000
    4.2650   -6.4770   26.4610 C   0  0  0  0  0  0  0  0  0  0  0  0
    4.8610   -5.1310   26.7250 C   0  0  0  0  0  0  0  0  0  0  0  0
    4.5550   -3.8560   26.1460 C   0  0  0  0  0  0  0  0  0  0  0  0
    5.5070   -3.0270   26.6720 C   0  0  0  0  0  0  0  0  0  0  0  0
    5.9190   -1.5860   26.4900 C   0  0  0  0  0  0  0  0  0  0  0  0
    6.9560   -1.3400   25.4860 N   0  0  0  0  0  0  0  0  0  0  0  0
    6.5570   -0.7310   24.2300 C   0  0  0  0  0  0  0  0  0  0  0  0
    7.4970   -1.0750   23.0580 C   0  0  2  0  0  0  0  0  0  0  0  0
    7.1110   -0.1050   21.9400 C   0  0  0  0  0  0  0  0  0  0  0  0
    7.3010    1.0950   21.9170 O   0  0  0  0  0  0  0  0  0  0  0  0
    6.4450   -0.7990   20.9610 N   0  0  0  0  0  0  0  0  0  0  0  0
    5.8330   -0.1590   19.8610 C   0  0  0  0  0  0  0  0  0  0  0  0
    6.2590   -0.4600   18.5940 C   0  0  0  0  0  0  0  0  0  0  0  0
    5.7850    0.1140   17.4610 N   0  0  0  0  0  0  0  0  0  0  0  0
    4.8180    0.9910   17.6040 C   0  0  0  0  0  0  0  0  0  0  0  0
    4.2530    1.3610   18.8580 C   0  0  0  0  0  0  0  0  0  0  0  0
    3.1940    2.3020   18.9480 C   0  0  0  0  0  0  0  0  0  0  0  0
    2.6410    2.6140   20.1580 C   0  0  0  0  0  0  0  0  0  0  0  0
    3.1150    1.9980   21.3400 C   0  0  0  0  0  0  0  0  0  0  0  0
    4.1430    1.0930   21.2830 C   0  0  0  0  0  0  0  0  0  0  0  0
    4.7550    0.7640   20.0380 C   0  0  0  0  0  0  0  0  0  0  0  0
    4.4960    0.6320   22.2030 H   0  0  0  0  0  0  0  0  0  0  0  0
    2.6630    2.2500   22.2950 H   0  0  0  0  0  0  0  0  0  0  0  0
    1.8350    3.3390   20.2230 H   0  0  0  0  0  0  0  0  0  0  0  0
    2.8360    2.7670   18.0320 H   0  0  0  0  0  0  0  0  0  0  0  0
    4.4220    1.4540   16.6970 H   0  0  0  0  0  0  0  0  0  0  0  0
    7.0570   -1.1910   18.4630 H   0  0  0  0  0  0  0  0  0  0  0  0
    6.2580   -2.2000   21.2560 C   0  0  0  0  0  0  0  0  0  0  0  0
    7.2480   -2.4750   22.3940 C   0  0  2  0  0  0  0  0  0  0  0  0
    6.7930   -3.6090   23.3080 C   0  0  0  0  0  0  0  0  0  0  0  0
    7.4720   -3.7400   24.1550 H   0  0  0  0  0  0  0  0  0  0  0  0
    6.7530   -4.5520   22.7550 H   0  0  0  0  0  0  0  0  0  0  0  0
    5.7890   -3.4200   23.7000 H   0  0  0  0  0  0  0  0  0  0  0  0
    8.2080   -2.7580   21.9400 H   0  0  0  0  0  0  0  0  0  0  0  0
    6.4490   -2.7930   20.3620 H   0  0  0  0  0  0  0  0  0  0  0  0
    5.2210   -2.3990   21.5580 H   0  0  0  0  0  0  0  0  0  0  0  0
    8.9300   -0.8950   23.5060 C   0  0  0  0  0  0  0  0  0  0  0  0
    9.9330   -0.6240   22.5720 C   0  0  0  0  0  0  0  0  0  0  0  0
   11.2470   -0.5500   22.9930 C   0  0  0  0  0  0  0  0  0  0  0  0
   12.2060   -0.2880   22.0900 F   0  0  0  0  0  0  0  0  0  0  0  0
   11.6160   -0.7500   24.3190 C   0  0  0  0  0  0  0  0  0  0  0  0
   10.6250   -1.0440   25.2360 C   0  0  0  0  0  0  0  0  0  0  0  0
    9.2910   -1.1090   24.8370 C   0  0  0  0  0  0  0  0  0  0  0  0
    8.2670   -1.4990   25.8480 C   0  0  0  0  0  0  0  0  0  0  0  0
    8.5810   -1.9580   26.9340 O   0  0  0  0  0  0  0  0  0  0  0  0
   10.8530   -1.2370   26.2800 H   0  0  0  0  0  0  0  0  0  0  0  0
   12.6620   -0.6870   24.6000 H   0  0  0  0  0  0  0  0  0  0  0  0
    9.6910   -0.4820   21.5250 H   0  0  0  0  0  0  0  0  0  0  0  0
    5.5430   -1.0710   23.9940 H   0  0  0  0  0  0  0  0  0  0  0  0
    6.5080    0.3660   24.3030 H   0  0  0  0  0  0  0  0  0  0  0  0
    5.0580   -0.9770   26.1960 H   0  0  0  0  0  0  0  0  0  0  0  0
    6.2770   -1.2420   27.4630 H   0  0  0  0  0  0  0  0  0  0  0  0
    6.2670   -3.7210   27.5330 O   0  0  0  0  0  0  0  0  0  0  0  0
    5.8660   -5.0230   27.5630 N   0  0  0  0  0  0  0  0  0  0  0  0
    3.7380   -3.6240   25.4700 H   0  0  0  0  0  0  0  0  0  0  0  0
    3.5750   -6.7890   27.2550 H   0  0  0  0  0  0  0  0  0  0  0  0
    5.0760   -7.2110   26.4250 H   0  0  0  0  0  0  0  0  0  0  0  0
    3.7240   -6.4900   25.5090 H   0  0  0  0  0  0  0  0  0  0  0  0
  1  2  1  0  0  0  0
  1 56  1  0  0  0  0
  1 57  1  0  0  0  0
  1 58  1  0  0  0  0
  2  3  1  0  0  0  0
  2 54  2  0  0  0  0
  3  4  2  0  0  0  0
  3 55  1  0  0  0  0
  4  5  1  0  0  0  0
  4 53  1  0  0  0  0
  5  6  1  0  0  0  0
  5 51  1  0  0  0  0
  5 52  1  0  0  0  0
  6  7  1  0  0  0  0
  6 44  1  0  0  0  0
  7  8  1  0  0  0  0
  7 49  1  0  0  0  0
  7 50  1  0  0  0  0
  8  9  1  6  0  0  0
  8 29  1  0  0  0  0
  8 37  1  0  0  0  0
  9 10  2  0  0  0  0
  9 11  1  0  0  0  0
 11 12  1  0  0  0  0
 11 28  1  0  0  0  0
 12 13  2  0  0  0  0
 12 21  1  0  0  0  0
 13 14  1  0  0  0  0
 13 27  1  0  0  0  0
 14 15  2  0  0  0  0
 15 16  1  0  0  0  0
 15 26  1  0  0  0  0
 16 17  2  0  0  0  0
 16 21  1  0  0  0  0
 17 18  1  0  0  0  0
 17 25  1  0  0  0  0
 18 19  2  0  0  0  0
 18 24  1  0  0  0  0
 19 20  1  0  0  0  0
 19 23  1  0  0  0  0
 20 21  2  0  0  0  0
 20 22  1  0  0  0  0
 28 29  1  0  0  0  0
 28 35  1  0  0  0  0
 28 36  1  0  0  0  0
 29 30  1  0  0  0  0
 29 34  1  6  0  0  0
 30 31  1  0  0  0  0
 30 32  1  0  0  0  0
 30 33  1  0  0  0  0
 37 38  2  0  0  0  0
 37 43  1  0  0  0  0
 38 39  1  0  0  0  0
 38 48  1  0  0  0  0
 39 40  1  0  0  0  0
 39 41  2  0  0  0  0
 41 42  1  0  0  0  0
 41 47  1  0  0  0  0
 42 43  2  0  0  0  0
 42 46  1  0  0  0  0
 43 44  1  0  0  0  0
 44 45  2  0  0  0  0
 53 54  1  0  0  0  0
M  END
>  <MODEL>
       2

$$$$
best_conformers_9.pdb
 OpenBabel02042510453D

 58 63  0  0  1  0  0  0  0  0999 V2000
    3.6570    2.1520   28.5100 C   0  0  0  0  0  0  0  0  0  0  0  0
    4.4720    0.9170   28.2470 C   0  0  0  0  0  0  0  0  0  0  0  0
    4.4960    0.1590   27.0410 C   0  0  0  0  0  0  0  0  0  0  0  0
    5.3890   -0.8290   27.2920 C   0  0  0  0  0  0  0  0  0  0  0  0
    5.8800   -1.9430   26.4140 C   0  0  0  0  0  0  0  0  0  0  0  0
    6.8960   -1.5260   25.4670 N   0  0  0  0  0  0  0  0  0  0  0  0
    6.5010   -0.7940   24.2780 C   0  0  0  0  0  0  0  0  0  0  0  0
    7.4550   -1.0740   23.0970 C   0  0  2  0  0  0  0  0  0  0  0  0
    7.0910   -0.0910   21.9710 C   0  0  0  0  0  0  0  0  0  0  0  0
    7.2850    1.1090   21.9530 O   0  0  0  0  0  0  0  0  0  0  0  0
    6.4500   -0.7900   20.9730 N   0  0  0  0  0  0  0  0  0  0  0  0
    5.8460   -0.1510   19.8640 C   0  0  0  0  0  0  0  0  0  0  0  0
    6.2620   -0.4580   18.5930 C   0  0  0  0  0  0  0  0  0  0  0  0
    5.7750    0.1120   17.4650 N   0  0  0  0  0  0  0  0  0  0  0  0
    4.8110    0.9930   17.6120 C   0  0  0  0  0  0  0  0  0  0  0  0
    4.2430    1.3640   18.8640 C   0  0  0  0  0  0  0  0  0  0  0  0
    3.1820    2.3070   18.9550 C   0  0  0  0  0  0  0  0  0  0  0  0
    2.6310    2.6200   20.1670 C   0  0  0  0  0  0  0  0  0  0  0  0
    3.1110    1.9970   21.3410 C   0  0  0  0  0  0  0  0  0  0  0  0
    4.1390    1.0920   21.2780 C   0  0  0  0  0  0  0  0  0  0  0  0
    4.7560    0.7660   20.0360 C   0  0  0  0  0  0  0  0  0  0  0  0
    4.4960    0.6250   22.1910 H   0  0  0  0  0  0  0  0  0  0  0  0
    2.6710    2.2520   22.3020 H   0  0  0  0  0  0  0  0  0  0  0  0
    1.8260    3.3510   20.2350 H   0  0  0  0  0  0  0  0  0  0  0  0
    2.8260    2.7740   18.0390 H   0  0  0  0  0  0  0  0  0  0  0  0
    4.4250    1.4530   16.7040 H   0  0  0  0  0  0  0  0  0  0  0  0
    7.0470   -1.1980   18.4390 H   0  0  0  0  0  0  0  0  0  0  0  0
    6.2770   -2.2040   21.2560 C   0  0  0  0  0  0  0  0  0  0  0  0
    7.2420   -2.4780   22.4200 C   0  0  2  0  0  0  0  0  0  0  0  0
    6.7780   -3.6270   23.3230 C   0  0  0  0  0  0  0  0  0  0  0  0
    7.4600   -3.7740   24.1660 H   0  0  0  0  0  0  0  0  0  0  0  0
    5.7820   -3.4300   23.7370 H   0  0  0  0  0  0  0  0  0  0  0  0
    6.7190   -4.5670   22.7650 H   0  0  0  0  0  0  0  0  0  0  0  0
    8.2280   -2.7370   22.0050 H   0  0  0  0  0  0  0  0  0  0  0  0
    6.5060   -2.7900   20.3660 H   0  0  0  0  0  0  0  0  0  0  0  0
    5.2350   -2.4270   21.5370 H   0  0  0  0  0  0  0  0  0  0  0  0
    8.8800   -0.8830   23.5800 C   0  0  0  0  0  0  0  0  0  0  0  0
    9.9030   -0.6270   22.6600 C   0  0  0  0  0  0  0  0  0  0  0  0
   11.2040   -0.5300   23.1130 C   0  0  0  0  0  0  0  0  0  0  0  0
   12.1800   -0.2620   22.2300 F   0  0  0  0  0  0  0  0  0  0  0  0
   11.5470   -0.6970   24.4500 C   0  0  0  0  0  0  0  0  0  0  0  0
   10.5400   -0.9860   25.3530 C   0  0  0  0  0  0  0  0  0  0  0  0
    9.2190   -1.0910   24.9210 C   0  0  0  0  0  0  0  0  0  0  0  0
    8.1910   -1.5460   25.8970 C   0  0  0  0  0  0  0  0  0  0  0  0
    8.4900   -1.9600   27.0040 O   0  0  0  0  0  0  0  0  0  0  0  0
   10.7430   -1.1730   26.4040 H   0  0  0  0  0  0  0  0  0  0  0  0
   12.5890   -0.6210   24.7410 H   0  0  0  0  0  0  0  0  0  0  0  0
    9.6990   -0.4920   21.6040 H   0  0  0  0  0  0  0  0  0  0  0  0
    5.4780   -1.0940   24.0030 H   0  0  0  0  0  0  0  0  0  0  0  0
    6.5280    0.2920   24.4600 H   0  0  0  0  0  0  0  0  0  0  0  0
    6.2970   -2.7490   27.0190 H   0  0  0  0  0  0  0  0  0  0  0  0
    5.0270   -2.3110   25.8390 H   0  0  0  0  0  0  0  0  0  0  0  0
    5.8520   -0.7050   28.5420 O   0  0  0  0  0  0  0  0  0  0  0  0
    5.2740    0.4000   29.1430 N   0  0  0  0  0  0  0  0  0  0  0  0
    3.9330    0.3360   26.1340 H   0  0  0  0  0  0  0  0  0  0  0  0
    3.5730    2.7340   27.5880 H   0  0  0  0  0  0  0  0  0  0  0  0
    2.6420    1.8800   28.8220 H   0  0  0  0  0  0  0  0  0  0  0  0
    4.1040    2.7780   29.2880 H   0  0  0  0  0  0  0  0  0  0  0  0
  1  2  1  0  0  0  0
  1 56  1  0  0  0  0
  1 57  1  0  0  0  0
  1 58  1  0  0  0  0
  2  3  1  0  0  0  0
  2 54  2  0  0  0  0
  3  4  2  0  0  0  0
  3 55  1  0  0  0  0
  4  5  1  0  0  0  0
  4 53  1  0  0  0  0
  5  6  1  0  0  0  0
  5 51  1  0  0  0  0
  5 52  1  0  0  0  0
  6  7  1  0  0  0  0
  6 44  1  0  0  0  0
  7  8  1  0  0  0  0
  7 49  1  0  0  0  0
  7 50  1  0  0  0  0
  8  9  1  6  0  0  0
  8 29  1  0  0  0  0
  8 37  1  0  0  0  0
  9 10  2  0  0  0  0
  9 11  1  0  0  0  0
 11 12  1  0  0  0  0
 11 28  1  0  0  0  0
 12 13  2  0  0  0  0
 12 21  1  0  0  0  0
 13 14  1  0  0  0  0
 13 27  1  0  0  0  0
 14 15  2  0  0  0  0
 15 16  1  0  0  0  0
 15 26  1  0  0  0  0
 16 17  2  0  0  0  0
 16 21  1  0  0  0  0
 17 18  1  0  0  0  0
 17 25  1  0  0  0  0
 18 19  2  0  0  0  0
 18 24  1  0  0  0  0
 19 20  1  0  0  0  0
 19 23  1  0  0  0  0
 20 21  2  0  0  0  0
 20 22  1  0  0  0  0
 28 29  1  0  0  0  0
 28 35  1  0  0  0  0
 28 36  1  0  0  0  0
 29 30  1  0  0  0  0
 29 34  1  6  0  0  0
 30 31  1  0  0  0  0
 30 32  1  0  0  0  0
 30 33  1  0  0  0  0
 37 38  2  0  0  0  0
 37 43  1  0  0  0  0
 38 39  1  0  0  0  0
 38 48  1  0  0  0  0
 39 40  1  0  0  0  0
 39 41  2  0  0  0  0
 41 42  1  0  0  0  0
 41 47  1  0  0  0  0
 42 43  2  0  0  0  0
 42 46  1  0  0  0  0
 43 44  1  0  0  0  0
 44 45  2  0  0  0  0
 53 54  1  0  0  0  0
M  END
>  <MODEL>
       3

$$$$
