best_conformers_32.pdb
 OpenBabel02042510453D

 72 77  0  0  1  0  0  0  0  0999 V2000
    7.3640   -3.5740   23.1100 C   0  0  0  0  0  0  0  0  0  0  0  0
    7.5880   -2.3570   22.2170 C   0  0  1  0  0  0  0  0  0  0  0  0
    6.3450   -2.0840   21.3570 C   0  0  0  0  0  0  0  0  0  0  0  0
    6.5080   -0.6940   20.9970 N   0  0  0  0  0  0  0  0  0  0  0  0
    5.8850   -0.1030   19.8760 C   0  0  0  0  0  0  0  0  0  0  0  0
    6.3340   -0.4190   18.6190 C   0  0  0  0  0  0  0  0  0  0  0  0
    5.8480    0.1070   17.4690 N   0  0  0  0  0  0  0  0  0  0  0  0
    4.8600    0.9670   17.5850 C   0  0  0  0  0  0  0  0  0  0  0  0
    4.2770    1.3580   18.8250 C   0  0  0  0  0  0  0  0  0  0  0  0
    3.2070    2.2940   18.8850 C   0  0  0  0  0  0  0  0  0  0  0  0
    2.6320    2.6120   20.0830 C   0  0  0  0  0  0  0  0  0  0  0  0
    3.0920    2.0140   21.2780 C   0  0  0  0  0  0  0  0  0  0  0  0
    4.1420    1.1280   21.2480 C   0  0  0  0  0  0  0  0  0  0  0  0
    4.7770    0.7920   20.0180 C   0  0  0  0  0  0  0  0  0  0  0  0
    4.4920    0.6830   22.1730 H   0  0  0  0  0  0  0  0  0  0  0  0
    2.6180    2.2670   22.2230 H   0  0  0  0  0  0  0  0  0  0  0  0
    1.8210    3.3350   20.1270 H   0  0  0  0  0  0  0  0  0  0  0  0
    2.8720    2.7550   17.9580 H   0  0  0  0  0  0  0  0  0  0  0  0
    4.4640    1.3900   16.6640 H   0  0  0  0  0  0  0  0  0  0  0  0
    7.1570   -1.1250   18.5110 H   0  0  0  0  0  0  0  0  0  0  0  0
    7.3520    0.0070   21.8350 C   0  0  0  0  0  0  0  0  0  0  0  0
    7.5530    1.2010   21.7470 O   0  0  0  0  0  0  0  0  0  0  0  0
    7.8810   -0.9680   22.9070 C   0  0  1  0  0  0  0  0  0  0  0  0
    6.9680   -0.7220   24.1340 C   0  0  0  0  0  0  0  0  0  0  0  0
    7.4530   -1.3640   25.3320 N   0  0  0  0  0  0  0  0  0  0  0  0
    6.5220   -1.6880   26.3920 C   0  0  0  0  0  0  0  0  0  0  0  0
    6.5330   -3.1900   26.6650 C   0  0  0  0  0  0  0  0  0  0  0  0
    5.9300   -3.5170   27.9680 N   0  3  1  0  0  0  0  0  0  0  0  0
    6.7050   -2.8900   29.0990 C   0  0  0  0  0  0  0  0  0  0  0  0
    6.1290   -3.4510   30.3780 C   0  0  0  0  0  0  0  0  0  0  0  0
    4.7620   -3.1010   30.5010 O   0  0  0  0  0  0  0  0  0  0  0  0
    3.9330   -3.6150   29.4450 C   0  0  0  0  0  0  0  0  0  0  0  0
    3.8800   -5.1410   29.5000 C   0  0  0  0  0  0  0  0  0  0  0  0
    4.8110   -5.5990   29.1530 H   0  0  0  0  0  0  0  0  0  0  0  0
    3.6800   -5.4510   30.5280 H   0  0  0  0  0  0  0  0  0  0  0  0
    3.0810   -5.5150   28.8510 H   0  0  0  0  0  0  0  0  0  0  0  0
    2.5530   -3.0370   29.7080 C   0  0  0  0  0  0  0  0  0  0  0  0
    2.2100   -3.4080   30.6770 H   0  0  0  0  0  0  0  0  0  0  0  0
    2.5840   -1.9440   29.7430 H   0  0  0  0  0  0  0  0  0  0  0  0
    1.8340   -3.3520   28.9430 H   0  0  0  0  0  0  0  0  0  0  0  0
    4.4740   -3.1740   28.0830 C   0  0  0  0  0  0  0  0  0  0  0  0
    4.3510   -2.0990   27.9400 H   0  0  0  0  0  0  0  0  0  0  0  0
    3.9220   -3.6690   27.2830 H   0  0  0  0  0  0  0  0  0  0  0  0
    6.2610   -4.5360   30.2800 H   0  0  0  0  0  0  0  0  0  0  0  0
    6.6250   -3.0780   31.2770 H   0  0  0  0  0  0  0  0  0  0  0  0
    7.7660   -3.1370   28.9780 H   0  0  0  0  0  0  0  0  0  0  0  0
    6.5660   -1.8040   29.1090 H   0  0  0  0  0  0  0  0  0  0  0  0
    6.0270   -4.5460   28.0530 H   0  0  0  0  0  0  0  0  0  0  0  0
    7.5650   -3.5430   26.7010 H   0  0  0  0  0  0  0  0  0  0  0  0
    6.0030   -3.7390   25.8790 H   0  0  0  0  0  0  0  0  0  0  0  0
    6.8430   -1.1340   27.2800 H   0  0  0  0  0  0  0  0  0  0  0  0
    5.5210   -1.3350   26.1290 H   0  0  0  0  0  0  0  0  0  0  0  0
    8.7700   -1.3830   25.6710 C   0  0  0  0  0  0  0  0  0  0  0  0
    9.1480   -1.7600   26.7750 O   0  0  0  0  0  0  0  0  0  0  0  0
    9.7350   -0.9310   24.6300 C   0  0  0  0  0  0  0  0  0  0  0  0
   11.0520   -0.7240   25.0330 C   0  0  0  0  0  0  0  0  0  0  0  0
   11.9920   -0.2670   24.1380 C   0  0  0  0  0  0  0  0  0  0  0  0
   11.5960   -0.0340   22.8240 C   0  0  0  0  0  0  0  0  0  0  0  0
   12.8210    0.5530   21.7380 Cl  0  0  0  0  0  0  0  0  0  0  0  0
   10.2950   -0.2520   22.3970 C   0  0  0  0  0  0  0  0  0  0  0  0
    9.3280   -0.7110   23.3080 C   0  0  0  0  0  0  0  0  0  0  0  0
   10.0190   -0.0360   21.3700 H   0  0  0  0  0  0  0  0  0  0  0  0
   13.0160   -0.0740   24.4350 H   0  0  0  0  0  0  0  0  0  0  0  0
   11.3120   -0.9110   26.0670 H   0  0  0  0  0  0  0  0  0  0  0  0
    5.9660   -1.1060   23.9150 H   0  0  0  0  0  0  0  0  0  0  0  0
    6.8780    0.3650   24.2730 H   0  0  0  0  0  0  0  0  0  0  0  0
    5.4230   -2.2340   21.9490 H   0  0  0  0  0  0  0  0  0  0  0  0
    6.2700   -2.7150   20.4650 H   0  0  0  0  0  0  0  0  0  0  0  0
    8.4390   -2.5330   21.5440 H   0  0  0  0  0  0  0  0  0  0  0  0
    6.4190   -3.4720   23.6590 H   0  0  0  0  0  0  0  0  0  0  0  0
    7.2850   -4.4830   22.5020 H   0  0  0  0  0  0  0  0  0  0  0  0
    8.1680   -3.7060   23.8410 H   0  0  0  0  0  0  0  0  0  0  0  0
  1  2  1  0  0  0  0
  1 70  1  0  0  0  0
  1 71  1  0  0  0  0
  1 72  1  0  0  0  0
  2  3  1  0  0  0  0
  2 23  1  0  0  0  0
  2 69  1  6  0  0  0
  3  4  1  0  0  0  0
  3 67  1  0  0  0  0
  3 68  1  0  0  0  0
  4  5  1  0  0  0  0
  4 21  1  0  0  0  0
  5  6  2  0  0  0  0
  5 14  1  0  0  0  0
  6  7  1  0  0  0  0
  6 20  1  0  0  0  0
  7  8  2  0  0  0  0
  8  9  1  0  0  0  0
  8 19  1  0  0  0  0
  9 10  2  0  0  0  0
  9 14  1  0  0  0  0
 10 11  1  0  0  0  0
 10 18  1  0  0  0  0
 11 12  2  0  0  0  0
 11 17  1  0  0  0  0
 12 13  1  0  0  0  0
 12 16  1  0  0  0  0
 13 14  2  0  0  0  0
 13 15  1  0  0  0  0
 21 22  2  0  0  0  0
 23 21  1  6  0  0  0
 23 24  1  0  0  0  0
 23 61  1  0  0  0  0
 24 25  1  0  0  0  0
 24 65  1  0  0  0  0
 24 66  1  0  0  0  0
 25 26  1  0  0  0  0
 25 53  1  0  0  0  0
 26 27  1  0  0  0  0
 26 51  1  0  0  0  0
 26 52  1  0  0  0  0
 27 28  1  0  0  0  0
 27 49  1  0  0  0  0
 27 50  1  0  0  0  0
 28 29  1  0  0  0  0
 28 41  1  0  0  0  0
 28 48  1  1  0  0  0
 29 30  1  0  0  0  0
 29 46  1  0  0  0  0
 29 47  1  0  0  0  0
 30 31  1  0  0  0  0
 30 44  1  0  0  0  0
 30 45  1  0  0  0  0
 31 32  1  0  0  0  0
 32 33  1  0  0  0  0
 32 37  1  0  0  0  0
 32 41  1  0  0  0  0
 33 34  1  0  0  0  0
 33 35  1  0  0  0  0
 33 36  1  0  0  0  0
 37 38  1  0  0  0  0
 37 39  1  0  0  0  0
 37 40  1  0  0  0  0
 41 42  1  0  0  0  0
 41 43  1  0  0  0  0
 53 54  2  0  0  0  0
 53 55  1  0  0  0  0
 55 56  2  0  0  0  0
 55 61  1  0  0  0  0
 56 57  1  0  0  0  0
 56 64  1  0  0  0  0
 57 58  2  0  0  0  0
 57 63  1  0  0  0  0
 58 59  1  0  0  0  0
 58 60  1  0  0  0  0
 60 61  2  0  0  0  0
 60 62  1  0  0  0  0
M  CHG  1  28   1
M  END
>  <MODEL>
       1

$$$$
best_conformers_32.pdb
 OpenBabel02042510453D

 72 77  0  0  1  0  0  0  0  0999 V2000
    6.8870   -3.7110   23.2270 C   0  0  0  0  0  0  0  0  0  0  0  0
    7.3130   -2.5330   22.3420 C   0  0  1  0  0  0  0  0  0  0  0  0
    6.2980   -2.2310   21.2270 C   0  0  0  0  0  0  0  0  0  0  0  0
    6.4490   -0.8080   20.9780 N   0  0  0  0  0  0  0  0  0  0  0  0
    5.8430   -0.1590   19.8670 C   0  0  0  0  0  0  0  0  0  0  0  0
    6.2510   -0.4580   18.5890 C   0  0  0  0  0  0  0  0  0  0  0  0
    5.7640    0.1210   17.4620 N   0  0  0  0  0  0  0  0  0  0  0  0
    4.8030    1.0030   17.6040 C   0  0  0  0  0  0  0  0  0  0  0  0
    4.2380    1.3690   18.8580 C   0  0  0  0  0  0  0  0  0  0  0  0
    3.1800    2.3170   18.9530 C   0  0  0  0  0  0  0  0  0  0  0  0
    2.6360    2.6320   20.1690 C   0  0  0  0  0  0  0  0  0  0  0  0
    3.1220    2.0070   21.3410 C   0  0  0  0  0  0  0  0  0  0  0  0
    4.1460    1.0960   21.2700 C   0  0  0  0  0  0  0  0  0  0  0  0
    4.7540    0.7650   20.0270 C   0  0  0  0  0  0  0  0  0  0  0  0
    4.5100    0.6270   22.1770 H   0  0  0  0  0  0  0  0  0  0  0  0
    2.6880    2.2610   22.3050 H   0  0  0  0  0  0  0  0  0  0  0  0
    1.8330    3.3630   20.2440 H   0  0  0  0  0  0  0  0  0  0  0  0
    2.8170    2.7850   18.0410 H   0  0  0  0  0  0  0  0  0  0  0  0
    4.4160    1.4660   16.6980 H   0  0  0  0  0  0  0  0  0  0  0  0
    7.0380   -1.1920   18.4220 H   0  0  0  0  0  0  0  0  0  0  0  0
    7.1220   -0.1400   21.9800 C   0  0  0  0  0  0  0  0  0  0  0  0
    7.2960    1.0640   22.0040 O   0  0  0  0  0  0  0  0  0  0  0  0
    7.5630   -1.1550   23.0520 C   0  0  1  0  0  0  0  0  0  0  0  0
    6.6970   -0.9150   24.3120 C   0  0  0  0  0  0  0  0  0  0  0  0
    7.1630   -1.6750   25.4600 N   0  0  0  0  0  0  0  0  0  0  0  0
    6.1870   -2.1620   26.4320 C   0  0  0  0  0  0  0  0  0  0  0  0
    5.7800   -1.0980   27.4580 C   0  0  0  0  0  0  0  0  0  0  0  0
    4.9930   -1.6530   28.6050 N   0  3  1  0  0  0  0  0  0  0  0  0
    4.8830   -0.6360   29.7100 C   0  0  0  0  0  0  0  0  0  0  0  0
    4.0590   -1.1790   30.8650 C   0  0  0  0  0  0  0  0  0  0  0  0
    2.7600   -1.5540   30.4500 O   0  0  0  0  0  0  0  0  0  0  0  0
    2.7520   -2.5540   29.4240 C   0  0  0  0  0  0  0  0  0  0  0  0
    3.2180   -3.9050   29.9750 C   0  0  0  0  0  0  0  0  0  0  0  0
    2.6370   -4.1580   30.8710 H   0  0  0  0  0  0  0  0  0  0  0  0
    3.0470   -4.6840   29.2200 H   0  0  0  0  0  0  0  0  0  0  0  0
    4.2850   -3.9120   30.2270 H   0  0  0  0  0  0  0  0  0  0  0  0
    1.2980   -2.6650   28.9770 C   0  0  0  0  0  0  0  0  0  0  0  0
    1.2070   -3.3890   28.1560 H   0  0  0  0  0  0  0  0  0  0  0  0
    0.9280   -1.6930   28.6300 H   0  0  0  0  0  0  0  0  0  0  0  0
    0.6680   -3.0010   29.8100 H   0  0  0  0  0  0  0  0  0  0  0  0
    3.6030   -2.1090   28.2200 C   0  0  0  0  0  0  0  0  0  0  0  0
    3.0910   -1.2740   27.7290 H   0  0  0  0  0  0  0  0  0  0  0  0
    3.6730   -2.9400   27.5110 H   0  0  0  0  0  0  0  0  0  0  0  0
    3.9100   -0.4050   31.6240 H   0  0  0  0  0  0  0  0  0  0  0  0
    4.5960   -2.0180   31.3320 H   0  0  0  0  0  0  0  0  0  0  0  0
    4.3930    0.2570   29.3070 H   0  0  0  0  0  0  0  0  0  0  0  0
    5.8910   -0.3660   30.0400 H   0  0  0  0  0  0  0  0  0  0  0  0
    5.5320   -2.4640   28.9750 H   0  0  0  0  0  0  0  0  0  0  0  0
    6.6800   -0.6300   27.8690 H   0  0  0  0  0  0  0  0  0  0  0  0
    5.1750   -0.3180   26.9720 H   0  0  0  0  0  0  0  0  0  0  0  0
    6.6230   -3.0180   26.9570 H   0  0  0  0  0  0  0  0  0  0  0  0
    5.3040   -2.5040   25.8750 H   0  0  0  0  0  0  0  0  0  0  0  0
    8.4860   -1.6850   25.8050 C   0  0  0  0  0  0  0  0  0  0  0  0
    8.8670   -2.0730   26.8960 O   0  0  0  0  0  0  0  0  0  0  0  0
    9.4500   -1.2310   24.7490 C   0  0  0  0  0  0  0  0  0  0  0  0
   10.8020   -1.1440   25.0790 C   0  0  0  0  0  0  0  0  0  0  0  0
   11.7370   -0.8090   24.1210 C   0  0  0  0  0  0  0  0  0  0  0  0
   11.3090   -0.5780   22.8190 C   0  0  0  0  0  0  0  0  0  0  0  0
   12.5230   -0.1720   21.6450 Cl  0  0  0  0  0  0  0  0  0  0  0  0
    9.9740   -0.6730   22.4660 C   0  0  0  0  0  0  0  0  0  0  0  0
    9.0200   -0.9820   23.4430 C   0  0  0  0  0  0  0  0  0  0  0  0
    9.6730   -0.4940   21.4400 H   0  0  0  0  0  0  0  0  0  0  0  0
   12.7960   -0.7320   24.3450 H   0  0  0  0  0  0  0  0  0  0  0  0
   11.1110   -1.3650   26.0930 H   0  0  0  0  0  0  0  0  0  0  0  0
    5.6630   -1.2110   24.1160 H   0  0  0  0  0  0  0  0  0  0  0  0
    6.7180    0.1670   24.5140 H   0  0  0  0  0  0  0  0  0  0  0  0
    5.2700   -2.4860   21.5320 H   0  0  0  0  0  0  0  0  0  0  0  0
    6.4950   -2.7860   20.3100 H   0  0  0  0  0  0  0  0  0  0  0  0
    8.2740   -2.7890   21.8750 H   0  0  0  0  0  0  0  0  0  0  0  0
    6.8020   -4.6340   22.6400 H   0  0  0  0  0  0  0  0  0  0  0  0
    7.6060   -3.8800   24.0350 H   0  0  0  0  0  0  0  0  0  0  0  0
    5.9120   -3.5250   23.6950 H   0  0  0  0  0  0  0  0  0  0  0  0
  1  2  1  0  0  0  0
  1 70  1  0  0  0  0
  1 71  1  0  0  0  0
  1 72  1  0  0  0  0
  2  3  1  0  0  0  0
  2 23  1  0  0  0  0
  2 69  1  6  0  0  0
  3  4  1  0  0  0  0
  3 67  1  0  0  0  0
  3 68  1  0  0  0  0
  4  5  1  0  0  0  0
  4 21  1  0  0  0  0
  5  6  2  0  0  0  0
  5 14  1  0  0  0  0
  6  7  1  0  0  0  0
  6 20  1  0  0  0  0
  7  8  2  0  0  0  0
  8  9  1  0  0  0  0
  8 19  1  0  0  0  0
  9 10  2  0  0  0  0
  9 14  1  0  0  0  0
 10 11  1  0  0  0  0
 10 18  1  0  0  0  0
 11 12  2  0  0  0  0
 11 17  1  0  0  0  0
 12 13  1  0  0  0  0
 12 16  1  0  0  0  0
 13 14  2  0  0  0  0
 13 15  1  0  0  0  0
 21 22  2  0  0  0  0
 23 21  1  6  0  0  0
 23 24  1  0  0  0  0
 23 61  1  0  0  0  0
 24 25  1  0  0  0  0
 24 65  1  0  0  0  0
 24 66  1  0  0  0  0
 25 26  1  0  0  0  0
 25 53  1  0  0  0  0
 26 27  1  0  0  0  0
 26 51  1  0  0  0  0
 26 52  1  0  0  0  0
 27 28  1  0  0  0  0
 27 49  1  0  0  0  0
 27 50  1  0  0  0  0
 28 29  1  0  0  0  0
 28 41  1  0  0  0  0
 28 48  1  1  0  0  0
 29 30  1  0  0  0  0
 29 46  1  0  0  0  0
 29 47  1  0  0  0  0
 30 31  1  0  0  0  0
 30 44  1  0  0  0  0
 30 45  1  0  0  0  0
 31 32  1  0  0  0  0
 32 33  1  0  0  0  0
 32 37  1  0  0  0  0
 32 41  1  0  0  0  0
 33 34  1  0  0  0  0
 33 35  1  0  0  0  0
 33 36  1  0  0  0  0
 37 38  1  0  0  0  0
 37 39  1  0  0  0  0
 37 40  1  0  0  0  0
 41 42  1  0  0  0  0
 41 43  1  0  0  0  0
 53 54  2  0  0  0  0
 53 55  1  0  0  0  0
 55 56  2  0  0  0  0
 55 61  1  0  0  0  0
 56 57  1  0  0  0  0
 56 64  1  0  0  0  0
 57 58  2  0  0  0  0
 57 63  1  0  0  0  0
 58 59  1  0  0  0  0
 58 60  1  0  0  0  0
 60 61  2  0  0  0  0
 60 62  1  0  0  0  0
M  CHG  1  28   1
M  END
>  <MODEL>
       2

$$$$
best_conformers_32.pdb
 OpenBabel02042510453D

 72 77  0  0  1  0  0  0  0  0999 V2000
    8.9860   -2.6340   22.2160 C   0  0  0  0  0  0  0  0  0  0  0  0
    7.9390   -1.5810   22.5940 C   0  0  1  0  0  0  0  0  0  0  0  0
    7.7200   -0.5940   21.4260 C   0  0  0  0  0  0  0  0  0  0  0  0
    6.3920   -0.8900   20.9470 N   0  0  0  0  0  0  0  0  0  0  0  0
    5.8040   -0.2110   19.8590 C   0  0  0  0  0  0  0  0  0  0  0  0
    6.2830   -0.4500   18.5970 C   0  0  0  0  0  0  0  0  0  0  0  0
    5.8020    0.1220   17.4670 N   0  0  0  0  0  0  0  0  0  0  0  0
    4.8180    0.9790   17.6120 C   0  0  0  0  0  0  0  0  0  0  0  0
    4.2530    1.3400   18.8700 C   0  0  0  0  0  0  0  0  0  0  0  0
    3.2100    2.2960   18.9580 C   0  0  0  0  0  0  0  0  0  0  0  0
    2.6930    2.6530   20.1720 C   0  0  0  0  0  0  0  0  0  0  0  0
    3.1950    2.0700   21.3580 C   0  0  0  0  0  0  0  0  0  0  0  0
    4.2030    1.1370   21.3090 C   0  0  0  0  0  0  0  0  0  0  0  0
    4.7520    0.7400   20.0490 C   0  0  0  0  0  0  0  0  0  0  0  0
    4.5900    0.7210   22.2420 H   0  0  0  0  0  0  0  0  0  0  0  0
    2.7830    2.3740   22.3150 H   0  0  0  0  0  0  0  0  0  0  0  0
    1.8950    3.3870   20.2370 H   0  0  0  0  0  0  0  0  0  0  0  0
    2.8440    2.7490   18.0420 H   0  0  0  0  0  0  0  0  0  0  0  0
    4.4260    1.4570   16.7110 H   0  0  0  0  0  0  0  0  0  0  0  0
    7.0780   -1.1840   18.4620 H   0  0  0  0  0  0  0  0  0  0  0  0
    5.6920   -1.7820   21.7110 C   0  0  0  0  0  0  0  0  0  0  0  0
    4.5900   -2.2120   21.4310 O   0  0  0  0  0  0  0  0  0  0  0  0
    6.5200   -2.1300   22.9510 C   0  0  1  0  0  0  0  0  0  0  0  0
    6.4990   -3.6520   23.1840 C   0  0  0  0  0  0  0  0  0  0  0  0
    5.2200   -4.1410   23.6640 N   0  0  0  0  0  0  0  0  0  0  0  0
    4.7060   -5.4190   23.2110 C   0  0  0  0  0  0  0  0  0  0  0  0
    3.5040   -5.2480   22.2820 C   0  0  0  0  0  0  0  0  0  0  0  0
    2.7480   -6.5030   21.9840 N   0  3  1  0  0  0  0  0  0  0  0  0
    3.5840   -7.6530   21.5000 C   0  0  0  0  0  0  0  0  0  0  0  0
    2.6440   -8.7230   20.9700 C   0  0  0  0  0  0  0  0  0  0  0  0
    1.7790   -9.1850   21.9860 O   0  0  0  0  0  0  0  0  0  0  0  0
    0.9680   -8.1660   22.5790 C   0  0  0  0  0  0  0  0  0  0  0  0
   -0.1340   -7.7450   21.6060 C   0  0  0  0  0  0  0  0  0  0  0  0
   -0.8430   -7.0740   22.0990 H   0  0  0  0  0  0  0  0  0  0  0  0
   -0.6760   -8.6310   21.2630 H   0  0  0  0  0  0  0  0  0  0  0  0
    0.2400   -7.2230   20.7200 H   0  0  0  0  0  0  0  0  0  0  0  0
    0.3860   -8.8170   23.8150 C   0  0  0  0  0  0  0  0  0  0  0  0
   -0.2090   -9.6900   23.5430 H   0  0  0  0  0  0  0  0  0  0  0  0
    1.2090   -9.1480   24.4550 H   0  0  0  0  0  0  0  0  0  0  0  0
   -0.2330   -8.1060   24.3700 H   0  0  0  0  0  0  0  0  0  0  0  0
    1.8180   -6.9780   23.0520 C   0  0  0  0  0  0  0  0  0  0  0  0
    1.1540   -6.1580   23.3290 H   0  0  0  0  0  0  0  0  0  0  0  0
    2.3860   -7.2570   23.9480 H   0  0  0  0  0  0  0  0  0  0  0  0
    2.0860   -8.2770   20.1310 H   0  0  0  0  0  0  0  0  0  0  0  0
    3.1740   -9.6060   20.6000 H   0  0  0  0  0  0  0  0  0  0  0  0
    4.2620   -7.2980   20.7160 H   0  0  0  0  0  0  0  0  0  0  0  0
    4.1550   -8.0170   22.3470 H   0  0  0  0  0  0  0  0  0  0  0  0
    2.1480   -6.2380   21.1810 H   0  0  0  0  0  0  0  0  0  0  0  0
    2.7960   -4.5520   22.7260 H   0  0  0  0  0  0  0  0  0  0  0  0
    3.8390   -4.7980   21.3450 H   0  0  0  0  0  0  0  0  0  0  0  0
    5.5180   -5.9440   22.6950 H   0  0  0  0  0  0  0  0  0  0  0  0
    4.4290   -5.9860   24.1020 H   0  0  0  0  0  0  0  0  0  0  0  0
    4.5420   -3.5160   24.6710 C   0  0  0  0  0  0  0  0  0  0  0  0
    3.6120   -4.0390   25.2760 O   0  0  0  0  0  0  0  0  0  0  0  0
    4.9810   -2.1240   24.9780 C   0  0  0  0  0  0  0  0  0  0  0  0
    4.3950   -1.5150   26.0850 C   0  0  0  0  0  0  0  0  0  0  0  0
    4.6980   -0.2040   26.3970 C   0  0  0  0  0  0  0  0  0  0  0  0
    5.5890    0.4870   25.5740 C   0  0  0  0  0  0  0  0  0  0  0  0
    5.9520    2.1570   25.9280 Cl  0  0  0  0  0  0  0  0  0  0  0  0
    6.1870   -0.1140   24.4770 C   0  0  0  0  0  0  0  0  0  0  0  0
    5.9070   -1.4520   24.1740 C   0  0  0  0  0  0  0  0  0  0  0  0
    6.8770    0.4680   23.8710 H   0  0  0  0  0  0  0  0  0  0  0  0
    4.2400    0.2980   27.2430 H   0  0  0  0  0  0  0  0  0  0  0  0
    3.6910   -2.1010   26.6690 H   0  0  0  0  0  0  0  0  0  0  0  0
    7.2780   -3.8840   23.9170 H   0  0  0  0  0  0  0  0  0  0  0  0
    6.7410   -4.1640   22.2500 H   0  0  0  0  0  0  0  0  0  0  0  0
    7.7870    0.4540   21.7410 H   0  0  0  0  0  0  0  0  0  0  0  0
    8.4540   -0.7330   20.6240 H   0  0  0  0  0  0  0  0  0  0  0  0
    8.3370   -1.0610   23.4700 H   0  0  0  0  0  0  0  0  0  0  0  0
    9.1940   -3.3180   23.0430 H   0  0  0  0  0  0  0  0  0  0  0  0
    9.9330   -2.1490   21.9580 H   0  0  0  0  0  0  0  0  0  0  0  0
    8.6710   -3.2230   21.3490 H   0  0  0  0  0  0  0  0  0  0  0  0
  1  2  1  0  0  0  0
  1 70  1  0  0  0  0
  1 71  1  0  0  0  0
  1 72  1  0  0  0  0
  2  3  1  0  0  0  0
  2 23  1  0  0  0  0
  2 69  1  1  0  0  0
  3  4  1  0  0  0  0
  3 67  1  0  0  0  0
  3 68  1  0  0  0  0
  4  5  1  0  0  0  0
  4 21  1  0  0  0  0
  5  6  2  0  0  0  0
  5 14  1  0  0  0  0
  6  7  1  0  0  0  0
  6 20  1  0  0  0  0
  7  8  2  0  0  0  0
  8  9  1  0  0  0  0
  8 19  1  0  0  0  0
  9 10  2  0  0  0  0
  9 14  1  0  0  0  0
 10 11  1  0  0  0  0
 10 18  1  0  0  0  0
 11 12  2  0  0  0  0
 11 17  1  0  0  0  0
 12 13  1  0  0  0  0
 12 16  1  0  0  0  0
 13 14  2  0  0  0  0
 13 15  1  0  0  0  0
 21 22  2  0  0  0  0
 23 21  1  6  0  0  0
 23 24  1  0  0  0  0
 23 61  1  0  0  0  0
 24 25  1  0  0  0  0
 24 65  1  0  0  0  0
 24 66  1  0  0  0  0
 25 26  1  0  0  0  0
 25 53  1  0  0  0  0
 26 27  1  0  0  0  0
 26 51  1  0  0  0  0
 26 52  1  0  0  0  0
 27 28  1  0  0  0  0
 27 49  1  0  0  0  0
 27 50  1  0  0  0  0
 28 29  1  0  0  0  0
 28 41  1  0  0  0  0
 28 48  1  6  0  0  0
 29 30  1  0  0  0  0
 29 46  1  0  0  0  0
 29 47  1  0  0  0  0
 30 31  1  0  0  0  0
 30 44  1  0  0  0  0
 30 45  1  0  0  0  0
 31 32  1  0  0  0  0
 32 33  1  0  0  0  0
 32 37  1  0  0  0  0
 32 41  1  0  0  0  0
 33 34  1  0  0  0  0
 33 35  1  0  0  0  0
 33 36  1  0  0  0  0
 37 38  1  0  0  0  0
 37 39  1  0  0  0  0
 37 40  1  0  0  0  0
 41 42  1  0  0  0  0
 41 43  1  0  0  0  0
 53 54  2  0  0  0  0
 53 55  1  0  0  0  0
 55 56  2  0  0  0  0
 55 61  1  0  0  0  0
 56 57  1  0  0  0  0
 56 64  1  0  0  0  0
 57 58  2  0  0  0  0
 57 63  1  0  0  0  0
 58 59  1  0  0  0  0
 58 60  1  0  0  0  0
 60 61  2  0  0  0  0
 60 62  1  0  0  0  0
M  CHG  1  28   1
M  END
>  <MODEL>
       3

$$$$
best_conformers_32.pdb
 OpenBabel02042510453D

 72 77  0  0  1  0  0  0  0  0999 V2000
    6.5340   -3.2320   23.7170 C   0  0  0  0  0  0  0  0  0  0  0  0
    7.1150   -2.3240   22.6260 C   0  0  1  0  0  0  0  0  0  0  0  0
    6.1390   -2.0810   21.4620 C   0  0  0  0  0  0  0  0  0  0  0  0
    6.4910   -0.7590   20.9730 N   0  0  0  0  0  0  0  0  0  0  0  0
    5.8610   -0.1370   19.8600 C   0  0  0  0  0  0  0  0  0  0  0  0
    6.2650   -0.4500   18.5880 C   0  0  0  0  0  0  0  0  0  0  0  0
    5.7610    0.1110   17.4610 N   0  0  0  0  0  0  0  0  0  0  0  0
    4.8000    0.9940   17.6050 C   0  0  0  0  0  0  0  0  0  0  0  0
    4.2420    1.3730   18.8580 C   0  0  0  0  0  0  0  0  0  0  0  0
    3.1840    2.3180   18.9570 C   0  0  0  0  0  0  0  0  0  0  0  0
    2.6510    2.6440   20.1760 C   0  0  0  0  0  0  0  0  0  0  0  0
    3.1490    2.0290   21.3500 C   0  0  0  0  0  0  0  0  0  0  0  0
    4.1750    1.1180   21.2760 C   0  0  0  0  0  0  0  0  0  0  0  0
    4.7720    0.7810   20.0280 C   0  0  0  0  0  0  0  0  0  0  0  0
    4.5460    0.6470   22.1820 H   0  0  0  0  0  0  0  0  0  0  0  0
    2.7240    2.2950   22.3140 H   0  0  0  0  0  0  0  0  0  0  0  0
    1.8510    3.3780   20.2520 H   0  0  0  0  0  0  0  0  0  0  0  0
    2.8150    2.7830   18.0440 H   0  0  0  0  0  0  0  0  0  0  0  0
    4.4150    1.4570   16.6970 H   0  0  0  0  0  0  0  0  0  0  0  0
    7.0480   -1.1900   18.4300 H   0  0  0  0  0  0  0  0  0  0  0  0
    7.2620   -0.0240   21.8480 C   0  0  0  0  0  0  0  0  0  0  0  0
    7.5730    1.1360   21.6660 O   0  0  0  0  0  0  0  0  0  0  0  0
    7.6050   -0.8970   23.0660 C   0  0  1  0  0  0  0  0  0  0  0  0
    6.8580   -0.2920   24.2850 C   0  0  0  0  0  0  0  0  0  0  0  0
    7.3120   -0.8030   25.5740 N   0  0  0  0  0  0  0  0  0  0  0  0
    6.4010   -0.7860   26.7240 C   0  0  0  0  0  0  0  0  0  0  0  0
    6.0620   -2.1880   27.2510 C   0  0  0  0  0  0  0  0  0  0  0  0
    5.2570   -2.1820   28.5100 N   0  3  1  0  0  0  0  0  0  0  0  0
    4.4900   -3.4800   28.6680 C   0  0  0  0  0  0  0  0  0  0  0  0
    4.0950   -3.6890   30.1330 C   0  0  0  0  0  0  0  0  0  0  0  0
    3.9460   -2.4580   30.8000 O   0  0  0  0  0  0  0  0  0  0  0  0
    5.1810   -1.7530   30.9890 C   0  0  0  0  0  0  0  0  0  0  0  0
    5.9220   -2.2450   32.2380 C   0  0  0  0  0  0  0  0  0  0  0  0
    6.8200   -1.6330   32.4050 H   0  0  0  0  0  0  0  0  0  0  0  0
    5.2750   -2.1630   33.1180 H   0  0  0  0  0  0  0  0  0  0  0  0
    6.2450   -3.2890   32.1410 H   0  0  0  0  0  0  0  0  0  0  0  0
    4.7680   -0.2970   31.1790 C   0  0  0  0  0  0  0  0  0  0  0  0
    4.1180   -0.2050   32.0570 H   0  0  0  0  0  0  0  0  0  0  0  0
    5.6540    0.3330   31.3230 H   0  0  0  0  0  0  0  0  0  0  0  0
    4.2160    0.0590   30.3010 H   0  0  0  0  0  0  0  0  0  0  0  0
    6.0840   -1.9200   29.7460 C   0  0  0  0  0  0  0  0  0  0  0  0
    6.6710   -1.0090   29.6060 H   0  0  0  0  0  0  0  0  0  0  0  0
    6.7920   -2.7510   29.8830 H   0  0  0  0  0  0  0  0  0  0  0  0
    3.1330   -4.2000   30.2220 H   0  0  0  0  0  0  0  0  0  0  0  0
    4.8480   -4.3210   30.6110 H   0  0  0  0  0  0  0  0  0  0  0  0
    5.1340   -4.3020   28.3390 H   0  0  0  0  0  0  0  0  0  0  0  0
    3.6100   -3.4470   28.0200 H   0  0  0  0  0  0  0  0  0  0  0  0
    4.5410   -1.4300   28.4550 H   0  0  0  0  0  0  0  0  0  0  0  0
    6.9890   -2.7380   27.4420 H   0  0  0  0  0  0  0  0  0  0  0  0
    5.4880   -2.7370   26.4950 H   0  0  0  0  0  0  0  0  0  0  0  0
    5.4790   -0.2910   26.3990 H   0  0  0  0  0  0  0  0  0  0  0  0
    6.8360   -0.1850   27.5320 H   0  0  0  0  0  0  0  0  0  0  0  0
    8.6370   -1.0560   25.8050 C   0  0  0  0  0  0  0  0  0  0  0  0
    9.0580   -1.3880   26.9010 O   0  0  0  0  0  0  0  0  0  0  0  0
    9.5740   -0.9570   24.6510 C   0  0  0  0  0  0  0  0  0  0  0  0
   10.9400   -1.0520   24.9170 C   0  0  0  0  0  0  0  0  0  0  0  0
   11.8540   -1.0680   23.8850 C   0  0  0  0  0  0  0  0  0  0  0  0
   11.3750   -1.0150   22.5780 C   0  0  0  0  0  0  0  0  0  0  0  0
   12.5330   -1.0760   21.2880 Cl  0  0  0  0  0  0  0  0  0  0  0  0
   10.0210   -0.9380   22.2970 C   0  0  0  0  0  0  0  0  0  0  0  0
    9.0950   -0.8880   23.3450 C   0  0  0  0  0  0  0  0  0  0  0  0
    9.6820   -0.9070   21.2680 H   0  0  0  0  0  0  0  0  0  0  0  0
   12.9220   -1.1330   24.0600 H   0  0  0  0  0  0  0  0  0  0  0  0
   11.2630   -1.1380   25.9480 H   0  0  0  0  0  0  0  0  0  0  0  0
    6.9950    0.7990   24.2190 H   0  0  0  0  0  0  0  0  0  0  0  0
    5.7860   -0.5170   24.2040 H   0  0  0  0  0  0  0  0  0  0  0  0
    5.0940   -2.1230   21.8110 H   0  0  0  0  0  0  0  0  0  0  0  0
    6.2450   -2.8240   20.6660 H   0  0  0  0  0  0  0  0  0  0  0  0
    8.0120   -2.8130   22.2190 H   0  0  0  0  0  0  0  0  0  0  0  0
    7.2300   -3.3460   24.5560 H   0  0  0  0  0  0  0  0  0  0  0  0
    5.6010   -2.8230   24.1240 H   0  0  0  0  0  0  0  0  0  0  0  0
    6.3150   -4.2330   23.3220 H   0  0  0  0  0  0  0  0  0  0  0  0
  1  2  1  0  0  0  0
  1 70  1  0  0  0  0
  1 71  1  0  0  0  0
  1 72  1  0  0  0  0
  2  3  1  0  0  0  0
  2 23  1  0  0  0  0
  2 69  1  6  0  0  0
  3  4  1  0  0  0  0
  3 67  1  0  0  0  0
  3 68  1  0  0  0  0
  4  5  1  0  0  0  0
  4 21  1  0  0  0  0
  5  6  2  0  0  0  0
  5 14  1  0  0  0  0
  6  7  1  0  0  0  0
  6 20  1  0  0  0  0
  7  8  2  0  0  0  0
  8  9  1  0  0  0  0
  8 19  1  0  0  0  0
  9 10  2  0  0  0  0
  9 14  1  0  0  0  0
 10 11  1  0  0  0  0
 10 18  1  0  0  0  0
 11 12  2  0  0  0  0
 11 17  1  0  0  0  0
 12 13  1  0  0  0  0
 12 16  1  0  0  0  0
 13 14  2  0  0  0  0
 13 15  1  0  0  0  0
 21 22  2  0  0  0  0
 23 21  1  6  0  0  0
 23 24  1  0  0  0  0
 23 61  1  0  0  0  0
 24 25  1  0  0  0  0
 24 65  1  0  0  0  0
 24 66  1  0  0  0  0
 25 26  1  0  0  0  0
 25 53  1  0  0  0  0
 26 27  1  0  0  0  0
 26 51  1  0  0  0  0
 26 52  1  0  0  0  0
 27 28  1  0  0  0  0
 27 49  1  0  0  0  0
 27 50  1  0  0  0  0
 28 29  1  0  0  0  0
 28 41  1  0  0  0  0
 28 48  1  6  0  0  0
 29 30  1  0  0  0  0
 29 46  1  0  0  0  0
 29 47  1  0  0  0  0
 30 31  1  0  0  0  0
 30 44  1  0  0  0  0
 30 45  1  0  0  0  0
 31 32  1  0  0  0  0
 32 33  1  0  0  0  0
 32 37  1  0  0  0  0
 32 41  1  0  0  0  0
 33 34  1  0  0  0  0
 33 35  1  0  0  0  0
 33 36  1  0  0  0  0
 37 38  1  0  0  0  0
 37 39  1  0  0  0  0
 37 40  1  0  0  0  0
 41 42  1  0  0  0  0
 41 43  1  0  0  0  0
 53 54  2  0  0  0  0
 53 55  1  0  0  0  0
 55 56  2  0  0  0  0
 55 61  1  0  0  0  0
 56 57  1  0  0  0  0
 56 64  1  0  0  0  0
 57 58  2  0  0  0  0
 57 63  1  0  0  0  0
 58 59  1  0  0  0  0
 58 60  1  0  0  0  0
 60 61  2  0  0  0  0
 60 62  1  0  0  0  0
M  CHG  1  28   1
M  END
>  <MODEL>
       4

$$$$
best_conformers_32.pdb
 OpenBabel02042510453D

 72 77  0  0  1  0  0  0  0  0999 V2000
    6.7660   -3.6100   23.3460 C   0  0  0  0  0  0  0  0  0  0  0  0
    7.2420   -2.4680   22.4390 C   0  0  1  0  0  0  0  0  0  0  0  0
    6.2840   -2.1990   21.2670 C   0  0  0  0  0  0  0  0  0  0  0  0
    6.4580   -0.7860   20.9780 N   0  0  0  0  0  0  0  0  0  0  0  0
    5.8500   -0.1500   19.8650 C   0  0  0  0  0  0  0  0  0  0  0  0
    6.2590   -0.4560   18.5930 C   0  0  0  0  0  0  0  0  0  0  0  0
    5.7690    0.1150   17.4650 N   0  0  0  0  0  0  0  0  0  0  0  0
    4.8060    0.9970   17.6100 C   0  0  0  0  0  0  0  0  0  0  0  0
    4.2400    1.3660   18.8600 C   0  0  0  0  0  0  0  0  0  0  0  0
    3.1790    2.3090   18.9550 C   0  0  0  0  0  0  0  0  0  0  0  0
    2.6290    2.6230   20.1680 C   0  0  0  0  0  0  0  0  0  0  0  0
    3.1130    1.9970   21.3420 C   0  0  0  0  0  0  0  0  0  0  0  0
    4.1400    1.0910   21.2740 C   0  0  0  0  0  0  0  0  0  0  0  0
    4.7560    0.7660   20.0330 C   0  0  0  0  0  0  0  0  0  0  0  0
    4.5000    0.6220   22.1850 H   0  0  0  0  0  0  0  0  0  0  0  0
    2.6740    2.2510   22.3040 H   0  0  0  0  0  0  0  0  0  0  0  0
    1.8240    3.3520   20.2390 H   0  0  0  0  0  0  0  0  0  0  0  0
    2.8200    2.7780   18.0400 H   0  0  0  0  0  0  0  0  0  0  0  0
    4.4210    1.4580   16.7020 H   0  0  0  0  0  0  0  0  0  0  0  0
    7.0430   -1.1960   18.4310 H   0  0  0  0  0  0  0  0  0  0  0  0
    7.1000   -0.0860   21.9770 C   0  0  0  0  0  0  0  0  0  0  0  0
    7.2920    1.1150   21.9590 O   0  0  0  0  0  0  0  0  0  0  0  0
    7.4650   -1.0630   23.1060 C   0  0  1  0  0  0  0  0  0  0  0  0
    6.5140   -0.7560   24.2910 C   0  0  0  0  0  0  0  0  0  0  0  0
    6.8950   -1.4410   25.5150 N   0  0  0  0  0  0  0  0  0  0  0  0
    5.8970   -2.0490   26.3850 C   0  0  0  0  0  0  0  0  0  0  0  0
    5.5300   -1.2190   27.6200 C   0  0  0  0  0  0  0  0  0  0  0  0
    4.6750   -0.0280   27.2650 N   0  3  1  0  0  0  0  0  0  0  0  0
    3.1780   -0.3040   27.3750 C   0  0  0  0  0  0  0  0  0  0  0  0
    2.7020   -0.2330   28.8200 C   0  0  0  0  0  0  0  0  0  0  0  0
    2.9980    1.0200   29.4020 O   0  0  0  0  0  0  0  0  0  0  0  0
    4.3930    1.3360   29.4320 C   0  0  0  0  0  0  0  0  0  0  0  0
    5.1410    0.4740   30.4540 C   0  0  0  0  0  0  0  0  0  0  0  0
    6.1900    0.7930   30.5070 H   0  0  0  0  0  0  0  0  0  0  0  0
    5.1280   -0.5950   30.2110 H   0  0  0  0  0  0  0  0  0  0  0  0
    4.6850    0.6070   31.4410 H   0  0  0  0  0  0  0  0  0  0  0  0
    4.4690    2.7950   29.8730 C   0  0  0  0  0  0  0  0  0  0  0  0
    3.8940    3.4280   29.1890 H   0  0  0  0  0  0  0  0  0  0  0  0
    4.0550    2.9020   30.8820 H   0  0  0  0  0  0  0  0  0  0  0  0
    5.5110    3.1390   29.8840 H   0  0  0  0  0  0  0  0  0  0  0  0
    4.9940    1.2390   28.0170 C   0  0  0  0  0  0  0  0  0  0  0  0
    6.0810    1.3400   28.0900 H   0  0  0  0  0  0  0  0  0  0  0  0
    4.6080    2.0780   27.4320 H   0  0  0  0  0  0  0  0  0  0  0  0
    1.6140   -0.3200   28.8690 H   0  0  0  0  0  0  0  0  0  0  0  0
    3.1330   -1.0640   29.3960 H   0  0  0  0  0  0  0  0  0  0  0  0
    2.6520    0.4570   26.7950 H   0  0  0  0  0  0  0  0  0  0  0  0
    2.9650   -1.2890   26.9440 H   0  0  0  0  0  0  0  0  0  0  0  0
    4.8840    0.1600   26.2690 H   0  0  0  0  0  0  0  0  0  0  0  0
    4.9680   -1.8520   28.3100 H   0  0  0  0  0  0  0  0  0  0  0  0
    6.4390   -0.8690   28.1190 H   0  0  0  0  0  0  0  0  0  0  0  0
    4.9880   -2.2150   25.7920 H   0  0  0  0  0  0  0  0  0  0  0  0
    6.2820   -3.0140   26.7270 H   0  0  0  0  0  0  0  0  0  0  0  0
    8.2020   -1.5370   25.9030 C   0  0  0  0  0  0  0  0  0  0  0  0
    8.5100   -2.0200   26.9800 O   0  0  0  0  0  0  0  0  0  0  0  0
    9.2350   -1.0850   24.9190 C   0  0  0  0  0  0  0  0  0  0  0  0
   10.5620   -0.9900   25.3350 C   0  0  0  0  0  0  0  0  0  0  0  0
   11.5640   -0.6950   24.4310 C   0  0  0  0  0  0  0  0  0  0  0  0
   11.2230   -0.5160   23.0910 C   0  0  0  0  0  0  0  0  0  0  0  0
   12.4800   -0.1560   21.9460 Cl  0  0  0  0  0  0  0  0  0  0  0  0
    9.9130   -0.6190   22.6580 C   0  0  0  0  0  0  0  0  0  0  0  0
    8.8930   -0.8790   23.5790 C   0  0  0  0  0  0  0  0  0  0  0  0
    9.6840   -0.4800   21.6070 H   0  0  0  0  0  0  0  0  0  0  0  0
   12.6030   -0.6170   24.7330 H   0  0  0  0  0  0  0  0  0  0  0  0
   10.7870   -1.1830   26.3770 H   0  0  0  0  0  0  0  0  0  0  0  0
    6.5570    0.3350   24.4380 H   0  0  0  0  0  0  0  0  0  0  0  0
    5.4840   -1.0520   24.0410 H   0  0  0  0  0  0  0  0  0  0  0  0
    6.5230   -2.7900   20.3820 H   0  0  0  0  0  0  0  0  0  0  0  0
    5.2410   -2.4310   21.5370 H   0  0  0  0  0  0  0  0  0  0  0  0
    8.2260   -2.7410   22.0300 H   0  0  0  0  0  0  0  0  0  0  0  0
    7.4410   -3.7550   24.1960 H   0  0  0  0  0  0  0  0  0  0  0  0
    5.7670   -3.4060   23.7520 H   0  0  0  0  0  0  0  0  0  0  0  0
    6.7100   -4.5540   22.7910 H   0  0  0  0  0  0  0  0  0  0  0  0
  1  2  1  0  0  0  0
  1 70  1  0  0  0  0
  1 71  1  0  0  0  0
  1 72  1  0  0  0  0
  2  3  1  0  0  0  0
  2 23  1  0  0  0  0
  2 69  1  6  0  0  0
  3  4  1  0  0  0  0
  3 67  1  0  0  0  0
  3 68  1  0  0  0  0
  4  5  1  0  0  0  0
  4 21  1  0  0  0  0
  5  6  2  0  0  0  0
  5 14  1  0  0  0  0
  6  7  1  0  0  0  0
  6 20  1  0  0  0  0
  7  8  2  0  0  0  0
  8  9  1  0  0  0  0
  8 19  1  0  0  0  0
  9 10  2  0  0  0  0
  9 14  1  0  0  0  0
 10 11  1  0  0  0  0
 10 18  1  0  0  0  0
 11 12  2  0  0  0  0
 11 17  1  0  0  0  0
 12 13  1  0  0  0  0
 12 16  1  0  0  0  0
 13 14  2  0  0  0  0
 13 15  1  0  0  0  0
 21 22  2  0  0  0  0
 23 21  1  6  0  0  0
 23 24  1  0  0  0  0
 23 61  1  0  0  0  0
 24 25  1  0  0  0  0
 24 65  1  0  0  0  0
 24 66  1  0  0  0  0
 25 26  1  0  0  0  0
 25 53  1  0  0  0  0
 26 27  1  0  0  0  0
 26 51  1  0  0  0  0
 26 52  1  0  0  0  0
 27 28  1  0  0  0  0
 27 49  1  0  0  0  0
 27 50  1  0  0  0  0
 28 29  1  0  0  0  0
 28 41  1  0  0  0  0
 28 48  1  6  0  0  0
 29 30  1  0  0  0  0
 29 46  1  0  0  0  0
 29 47  1  0  0  0  0
 30 31  1  0  0  0  0
 30 44  1  0  0  0  0
 30 45  1  0  0  0  0
 31 32  1  0  0  0  0
 32 33  1  0  0  0  0
 32 37  1  0  0  0  0
 32 41  1  0  0  0  0
 33 34  1  0  0  0  0
 33 35  1  0  0  0  0
 33 36  1  0  0  0  0
 37 38  1  0  0  0  0
 37 39  1  0  0  0  0
 37 40  1  0  0  0  0
 41 42  1  0  0  0  0
 41 43  1  0  0  0  0
 53 54  2  0  0  0  0
 53 55  1  0  0  0  0
 55 56  2  0  0  0  0
 55 61  1  0  0  0  0
 56 57  1  0  0  0  0
 56 64  1  0  0  0  0
 57 58  2  0  0  0  0
 57 63  1  0  0  0  0
 58 59  1  0  0  0  0
 58 60  1  0  0  0  0
 60 61  2  0  0  0  0
 60 62  1  0  0  0  0
M  CHG  1  28   1
M  END
>  <MODEL>
       5

$$$$
best_conformers_32.pdb
 OpenBabel02042510453D

 72 77  0  0  1  0  0  0  0  0999 V2000
    7.2070   -3.5920   23.2370 C   0  0  0  0  0  0  0  0  0  0  0  0
    7.5170   -2.4010   22.3240 C   0  0  1  0  0  0  0  0  0  0  0  0
    6.4380   -2.1720   21.2500 C   0  0  0  0  0  0  0  0  0  0  0  0
    6.4820   -0.7450   20.9930 N   0  0  0  0  0  0  0  0  0  0  0  0
    5.8590   -0.1390   19.8710 C   0  0  0  0  0  0  0  0  0  0  0  0
    6.2640   -0.4520   18.5950 C   0  0  0  0  0  0  0  0  0  0  0  0
    5.7690    0.1130   17.4650 N   0  0  0  0  0  0  0  0  0  0  0  0
    4.8060    0.9950   17.6080 C   0  0  0  0  0  0  0  0  0  0  0  0
    4.2420    1.3660   18.8620 C   0  0  0  0  0  0  0  0  0  0  0  0
    3.1800    2.3090   18.9540 C   0  0  0  0  0  0  0  0  0  0  0  0
    2.6330    2.6240   20.1680 C   0  0  0  0  0  0  0  0  0  0  0  0
    3.1170    2.0010   21.3400 C   0  0  0  0  0  0  0  0  0  0  0  0
    4.1440    1.0950   21.2740 C   0  0  0  0  0  0  0  0  0  0  0  0
    4.7600    0.7710   20.0330 C   0  0  0  0  0  0  0  0  0  0  0  0
    4.5050    0.6280   22.1820 H   0  0  0  0  0  0  0  0  0  0  0  0
    2.6810    2.2550   22.3030 H   0  0  0  0  0  0  0  0  0  0  0  0
    1.8300    3.3540   20.2390 H   0  0  0  0  0  0  0  0  0  0  0  0
    2.8210    2.7760   18.0400 H   0  0  0  0  0  0  0  0  0  0  0  0
    4.4170    1.4570   16.7010 H   0  0  0  0  0  0  0  0  0  0  0  0
    7.0500   -1.1880   18.4280 H   0  0  0  0  0  0  0  0  0  0  0  0
    7.1590   -0.0250   21.9530 C   0  0  0  0  0  0  0  0  0  0  0  0
    7.2640    1.1870   21.9500 O   0  0  0  0  0  0  0  0  0  0  0  0
    7.7070   -1.0020   23.0170 C   0  0  1  0  0  0  0  0  0  0  0  0
    6.8600   -0.8040   24.3030 C   0  0  0  0  0  0  0  0  0  0  0  0
    7.4070   -1.4990   25.4560 N   0  0  0  0  0  0  0  0  0  0  0  0
    6.5080   -2.0580   26.4540 C   0  0  0  0  0  0  0  0  0  0  0  0
    6.0690   -1.0260   27.4940 C   0  0  0  0  0  0  0  0  0  0  0  0
    5.1260   -1.5770   28.5140 N   0  3  1  0  0  0  0  0  0  0  0  0
    5.7660   -2.6590   29.3780 C   0  0  0  0  0  0  0  0  0  0  0  0
    5.0740   -2.7210   30.7420 C   0  0  0  0  0  0  0  0  0  0  0  0
    3.7050   -2.4160   30.6180 O   0  0  0  0  0  0  0  0  0  0  0  0
    3.4480   -1.0400   30.3240 C   0  0  0  0  0  0  0  0  0  0  0  0
    3.4170   -0.2190   31.6160 C   0  0  0  0  0  0  0  0  0  0  0  0
    2.6640   -0.6260   32.2960 H   0  0  0  0  0  0  0  0  0  0  0  0
    4.3850   -0.2300   32.1300 H   0  0  0  0  0  0  0  0  0  0  0  0
    3.1630    0.8230   31.3910 H   0  0  0  0  0  0  0  0  0  0  0  0
    2.0780   -1.0220   29.6580 C   0  0  0  0  0  0  0  0  0  0  0  0
    1.8000    0.0060   29.4010 H   0  0  0  0  0  0  0  0  0  0  0  0
    2.0870   -1.6310   28.7480 H   0  0  0  0  0  0  0  0  0  0  0  0
    1.3290   -1.4330   30.3410 H   0  0  0  0  0  0  0  0  0  0  0  0
    4.5380   -0.4930   29.3800 C   0  0  0  0  0  0  0  0  0  0  0  0
    4.1100    0.2840   28.7410 H   0  0  0  0  0  0  0  0  0  0  0  0
    5.3540   -0.0370   29.9560 H   0  0  0  0  0  0  0  0  0  0  0  0
    5.5800   -2.0570   31.4570 H   0  0  0  0  0  0  0  0  0  0  0  0
    5.0930   -3.7310   31.1400 H   0  0  0  0  0  0  0  0  0  0  0  0
    6.8290   -2.4260   29.4880 H   0  0  0  0  0  0  0  0  0  0  0  0
    5.6640   -3.6150   28.8600 H   0  0  0  0  0  0  0  0  0  0  0  0
    4.3270   -2.0220   28.0160 H   0  0  0  0  0  0  0  0  0  0  0  0
    5.5650   -0.1850   27.0020 H   0  0  0  0  0  0  0  0  0  0  0  0
    6.9540   -0.6370   28.0140 H   0  0  0  0  0  0  0  0  0  0  0  0
    5.6230   -2.4520   25.9330 H   0  0  0  0  0  0  0  0  0  0  0  0
    7.0290   -2.8900   26.9360 H   0  0  0  0  0  0  0  0  0  0  0  0
    8.7340   -1.4080   25.7570 C   0  0  0  0  0  0  0  0  0  0  0  0
    9.1940   -1.7370   26.8410 O   0  0  0  0  0  0  0  0  0  0  0  0
    9.6300   -0.9150   24.6660 C   0  0  0  0  0  0  0  0  0  0  0  0
   10.9740   -0.7250   24.9820 C   0  0  0  0  0  0  0  0  0  0  0  0
   11.8570   -0.3410   23.9970 C   0  0  0  0  0  0  0  0  0  0  0  0
   11.4080   -0.1590   22.6930 C   0  0  0  0  0  0  0  0  0  0  0  0
   12.6330    0.3450   21.5660 Cl  0  0  0  0  0  0  0  0  0  0  0  0
   10.0790   -0.3610   22.3550 C   0  0  0  0  0  0  0  0  0  0  0  0
    9.1640   -0.7210   23.3600 C   0  0  0  0  0  0  0  0  0  0  0  0
    9.7310   -0.2320   21.3350 H   0  0  0  0  0  0  0  0  0  0  0  0
   12.9090   -0.1840   24.1910 H   0  0  0  0  0  0  0  0  0  0  0  0
   11.3040   -0.9020   26.0030 H   0  0  0  0  0  0  0  0  0  0  0  0
    6.8130    0.2830   24.4790 H   0  0  0  0  0  0  0  0  0  0  0  0
    5.8450   -1.1830   24.1400 H   0  0  0  0  0  0  0  0  0  0  0  0
    5.4440   -2.4870   21.6020 H   0  0  0  0  0  0  0  0  0  0  0  0
    6.6310   -2.7080   20.3240 H   0  0  0  0  0  0  0  0  0  0  0  0
    8.4730   -2.5920   21.8180 H   0  0  0  0  0  0  0  0  0  0  0  0
    6.2370   -3.4720   23.7350 H   0  0  0  0  0  0  0  0  0  0  0  0
    7.9630   -3.7020   24.0190 H   0  0  0  0  0  0  0  0  0  0  0  0
    7.1690   -4.5240   22.6650 H   0  0  0  0  0  0  0  0  0  0  0  0
  1  2  1  0  0  0  0
  1 70  1  0  0  0  0
  1 71  1  0  0  0  0
  1 72  1  0  0  0  0
  2  3  1  0  0  0  0
  2 23  1  0  0  0  0
  2 69  1  6  0  0  0
  3  4  1  0  0  0  0
  3 67  1  0  0  0  0
  3 68  1  0  0  0  0
  4  5  1  0  0  0  0
  4 21  1  0  0  0  0
  5  6  2  0  0  0  0
  5 14  1  0  0  0  0
  6  7  1  0  0  0  0
  6 20  1  0  0  0  0
  7  8  2  0  0  0  0
  8  9  1  0  0  0  0
  8 19  1  0  0  0  0
  9 10  2  0  0  0  0
  9 14  1  0  0  0  0
 10 11  1  0  0  0  0
 10 18  1  0  0  0  0
 11 12  2  0  0  0  0
 11 17  1  0  0  0  0
 12 13  1  0  0  0  0
 12 16  1  0  0  0  0
 13 14  2  0  0  0  0
 13 15  1  0  0  0  0
 21 22  2  0  0  0  0
 23 21  1  6  0  0  0
 23 24  1  0  0  0  0
 23 61  1  0  0  0  0
 24 25  1  0  0  0  0
 24 65  1  0  0  0  0
 24 66  1  0  0  0  0
 25 26  1  0  0  0  0
 25 53  1  0  0  0  0
 26 27  1  0  0  0  0
 26 51  1  0  0  0  0
 26 52  1  0  0  0  0
 27 28  1  0  0  0  0
 27 49  1  0  0  0  0
 27 50  1  0  0  0  0
 28 29  1  0  0  0  0
 28 41  1  0  0  0  0
 28 48  1  6  0  0  0
 29 30  1  0  0  0  0
 29 46  1  0  0  0  0
 29 47  1  0  0  0  0
 30 31  1  0  0  0  0
 30 44  1  0  0  0  0
 30 45  1  0  0  0  0
 31 32  1  0  0  0  0
 32 33  1  0  0  0  0
 32 37  1  0  0  0  0
 32 41  1  0  0  0  0
 33 34  1  0  0  0  0
 33 35  1  0  0  0  0
 33 36  1  0  0  0  0
 37 38  1  0  0  0  0
 37 39  1  0  0  0  0
 37 40  1  0  0  0  0
 41 42  1  0  0  0  0
 41 43  1  0  0  0  0
 53 54  2  0  0  0  0
 53 55  1  0  0  0  0
 55 56  2  0  0  0  0
 55 61  1  0  0  0  0
 56 57  1  0  0  0  0
 56 64  1  0  0  0  0
 57 58  2  0  0  0  0
 57 63  1  0  0  0  0
 58 59  1  0  0  0  0
 58 60  1  0  0  0  0
 60 61  2  0  0  0  0
 60 62  1  0  0  0  0
M  CHG  1  28   1
M  END
>  <MODEL>
       6

$$$$
best_conformers_32.pdb
 OpenBabel02042510453D

 72 77  0  0  1  0  0  0  0  0999 V2000
    9.0380   -2.4700   22.2790 C   0  0  0  0  0  0  0  0  0  0  0  0
    7.9390   -1.4640   22.6390 C   0  0  1  0  0  0  0  0  0  0  0  0
    7.6970   -0.4910   21.4660 C   0  0  0  0  0  0  0  0  0  0  0  0
    6.4080   -0.8740   20.9470 N   0  0  0  0  0  0  0  0  0  0  0  0
    5.8070   -0.2090   19.8600 C   0  0  0  0  0  0  0  0  0  0  0  0
    6.2880   -0.4490   18.6010 C   0  0  0  0  0  0  0  0  0  0  0  0
    5.8100    0.1210   17.4700 N   0  0  0  0  0  0  0  0  0  0  0  0
    4.8200    0.9740   17.6150 C   0  0  0  0  0  0  0  0  0  0  0  0
    4.2540    1.3350   18.8730 C   0  0  0  0  0  0  0  0  0  0  0  0
    3.2110    2.2920   18.9590 C   0  0  0  0  0  0  0  0  0  0  0  0
    2.6920    2.6450   20.1720 C   0  0  0  0  0  0  0  0  0  0  0  0
    3.1910    2.0610   21.3600 C   0  0  0  0  0  0  0  0  0  0  0  0
    4.2000    1.1300   21.3150 C   0  0  0  0  0  0  0  0  0  0  0  0
    4.7520    0.7370   20.0530 C   0  0  0  0  0  0  0  0  0  0  0  0
    4.5810    0.7120   22.2500 H   0  0  0  0  0  0  0  0  0  0  0  0
    2.7770    2.3700   22.3170 H   0  0  0  0  0  0  0  0  0  0  0  0
    1.8970    3.3830   20.2350 H   0  0  0  0  0  0  0  0  0  0  0  0
    2.8490    2.7440   18.0400 H   0  0  0  0  0  0  0  0  0  0  0  0
    4.4290    1.4520   16.7140 H   0  0  0  0  0  0  0  0  0  0  0  0
    7.0910   -1.1760   18.4750 H   0  0  0  0  0  0  0  0  0  0  0  0
    5.7280   -1.7900   21.7010 C   0  0  0  0  0  0  0  0  0  0  0  0
    4.6580   -2.2750   21.3910 O   0  0  0  0  0  0  0  0  0  0  0  0
    6.5400   -2.0740   22.9710 C   0  0  1  0  0  0  0  0  0  0  0  0
    6.5890   -3.5930   23.2270 C   0  0  0  0  0  0  0  0  0  0  0  0
    5.3260   -4.1350   23.6860 N   0  0  0  0  0  0  0  0  0  0  0  0
    4.8770   -5.4410   23.2460 C   0  0  0  0  0  0  0  0  0  0  0  0
    3.6770   -5.3160   22.3090 C   0  0  0  0  0  0  0  0  0  0  0  0
    2.9920   -6.6000   21.9890 N   0  3  1  0  0  0  0  0  0  0  0  0
    3.9210   -7.6120   21.3610 C   0  0  0  0  0  0  0  0  0  0  0  0
    3.0980   -8.7850   20.8540 C   0  0  0  0  0  0  0  0  0  0  0  0
    2.3150   -9.3570   21.8790 O   0  0  0  0  0  0  0  0  0  0  0  0
    1.3830   -8.4470   22.4790 C   0  0  0  0  0  0  0  0  0  0  0  0
    0.8080   -9.2120   23.6580 C   0  0  0  0  0  0  0  0  0  0  0  0
    0.3030  -10.1200   23.3160 H   0  0  0  0  0  0  0  0  0  0  0  0
    1.6280   -9.5040   24.3210 H   0  0  0  0  0  0  0  0  0  0  0  0
    0.1000   -8.5950   24.2220 H   0  0  0  0  0  0  0  0  0  0  0  0
    0.3020   -8.0860   21.4570 C   0  0  0  0  0  0  0  0  0  0  0  0
   -0.1440   -9.0100   21.0750 H   0  0  0  0  0  0  0  0  0  0  0  0
    0.6990   -7.5300   20.6030 H   0  0  0  0  0  0  0  0  0  0  0  0
   -0.4910   -7.4730   21.8980 H   0  0  0  0  0  0  0  0  0  0  0  0
    2.1110   -7.2110   23.0320 C   0  0  0  0  0  0  0  0  0  0  0  0
    2.7090   -7.5000   23.8970 H   0  0  0  0  0  0  0  0  0  0  0  0
    1.3730   -6.4820   23.3810 H   0  0  0  0  0  0  0  0  0  0  0  0
    3.7240   -9.5860   20.4610 H   0  0  0  0  0  0  0  0  0  0  0  0
    2.4850   -8.4210   20.0210 H   0  0  0  0  0  0  0  0  0  0  0  0
    4.6660   -7.8880   22.0980 H   0  0  0  0  0  0  0  0  0  0  0  0
    4.4520   -7.1330   20.5300 H   0  0  0  0  0  0  0  0  0  0  0  0
    2.3390   -6.3360   21.2320 H   0  0  0  0  0  0  0  0  0  0  0  0
    2.9390   -4.6410   22.7320 H   0  0  0  0  0  0  0  0  0  0  0  0
    4.0020   -4.8670   21.3670 H   0  0  0  0  0  0  0  0  0  0  0  0
    4.6150   -6.0130   24.1390 H   0  0  0  0  0  0  0  0  0  0  0  0
    5.7160   -5.9340   22.7460 H   0  0  0  0  0  0  0  0  0  0  0  0
    4.5880   -3.5280   24.6560 C   0  0  0  0  0  0  0  0  0  0  0  0
    3.6640   -4.0850   25.2350 O   0  0  0  0  0  0  0  0  0  0  0  0
    4.9540   -2.1150   24.9550 C   0  0  0  0  0  0  0  0  0  0  0  0
    4.3100   -1.5290   26.0380 C   0  0  0  0  0  0  0  0  0  0  0  0
    4.5450   -0.2110   26.3590 C   0  0  0  0  0  0  0  0  0  0  0  0
    5.4320    0.5090   25.5580 C   0  0  0  0  0  0  0  0  0  0  0  0
    5.7180    2.1880   25.9180 Cl  0  0  0  0  0  0  0  0  0  0  0  0
    6.0890   -0.0670   24.4820 C   0  0  0  0  0  0  0  0  0  0  0  0
    5.8720   -1.4120   24.1710 C   0  0  0  0  0  0  0  0  0  0  0  0
    6.7790    0.5400   23.9000 H   0  0  0  0  0  0  0  0  0  0  0  0
    4.0430    0.2700   27.1920 H   0  0  0  0  0  0  0  0  0  0  0  0
    3.6170   -2.1470   26.6010 H   0  0  0  0  0  0  0  0  0  0  0  0
    7.3680   -3.7720   23.9760 H   0  0  0  0  0  0  0  0  0  0  0  0
    6.8820   -4.1080   22.3130 H   0  0  0  0  0  0  0  0  0  0  0  0
    7.6900    0.5600   21.7840 H   0  0  0  0  0  0  0  0  0  0  0  0
    8.4610   -0.5770   20.6860 H   0  0  0  0  0  0  0  0  0  0  0  0
    8.2980   -0.9270   23.5220 H   0  0  0  0  0  0  0  0  0  0  0  0
    8.7660   -3.0680   21.4040 H   0  0  0  0  0  0  0  0  0  0  0  0
    9.2550   -3.1480   23.1090 H   0  0  0  0  0  0  0  0  0  0  0  0
    9.9690   -1.9440   22.0430 H   0  0  0  0  0  0  0  0  0  0  0  0
  1  2  1  0  0  0  0
  1 70  1  0  0  0  0
  1 71  1  0  0  0  0
  1 72  1  0  0  0  0
  2  3  1  0  0  0  0
  2 23  1  0  0  0  0
  2 69  1  1  0  0  0
  3  4  1  0  0  0  0
  3 67  1  0  0  0  0
  3 68  1  0  0  0  0
  4  5  1  0  0  0  0
  4 21  1  0  0  0  0
  5  6  2  0  0  0  0
  5 14  1  0  0  0  0
  6  7  1  0  0  0  0
  6 20  1  0  0  0  0
  7  8  2  0  0  0  0
  8  9  1  0  0  0  0
  8 19  1  0  0  0  0
  9 10  2  0  0  0  0
  9 14  1  0  0  0  0
 10 11  1  0  0  0  0
 10 18  1  0  0  0  0
 11 12  2  0  0  0  0
 11 17  1  0  0  0  0
 12 13  1  0  0  0  0
 12 16  1  0  0  0  0
 13 14  2  0  0  0  0
 13 15  1  0  0  0  0
 21 22  2  0  0  0  0
 23 21  1  6  0  0  0
 23 24  1  0  0  0  0
 23 61  1  0  0  0  0
 24 25  1  0  0  0  0
 24 65  1  0  0  0  0
 24 66  1  0  0  0  0
 25 26  1  0  0  0  0
 25 53  1  0  0  0  0
 26 27  1  0  0  0  0
 26 51  1  0  0  0  0
 26 52  1  0  0  0  0
 27 28  1  0  0  0  0
 27 49  1  0  0  0  0
 27 50  1  0  0  0  0
 28 29  1  0  0  0  0
 28 41  1  0  0  0  0
 28 48  1  6  0  0  0
 29 30  1  0  0  0  0
 29 46  1  0  0  0  0
 29 47  1  0  0  0  0
 30 31  1  0  0  0  0
 30 44  1  0  0  0  0
 30 45  1  0  0  0  0
 31 32  1  0  0  0  0
 32 33  1  0  0  0  0
 32 37  1  0  0  0  0
 32 41  1  0  0  0  0
 33 34  1  0  0  0  0
 33 35  1  0  0  0  0
 33 36  1  0  0  0  0
 37 38  1  0  0  0  0
 37 39  1  0  0  0  0
 37 40  1  0  0  0  0
 41 42  1  0  0  0  0
 41 43  1  0  0  0  0
 53 54  2  0  0  0  0
 53 55  1  0  0  0  0
 55 56  2  0  0  0  0
 55 61  1  0  0  0  0
 56 57  1  0  0  0  0
 56 64  1  0  0  0  0
 57 58  2  0  0  0  0
 57 63  1  0  0  0  0
 58 59  1  0  0  0  0
 58 60  1  0  0  0  0
 60 61  2  0  0  0  0
 60 62  1  0  0  0  0
M  CHG  1  28   1
M  END
>  <MODEL>
       7

$$$$
best_conformers_32.pdb
 OpenBabel02042510453D

 72 77  0  0  1  0  0  0  0  0999 V2000
    6.8010   -3.6390   23.3110 C   0  0  0  0  0  0  0  0  0  0  0  0
    7.2590   -2.4830   22.4130 C   0  0  1  0  0  0  0  0  0  0  0  0
    6.2880   -2.2060   21.2550 C   0  0  0  0  0  0  0  0  0  0  0  0
    6.4550   -0.7910   20.9770 N   0  0  0  0  0  0  0  0  0  0  0  0
    5.8490   -0.1510   19.8660 C   0  0  0  0  0  0  0  0  0  0  0  0
    6.2610   -0.4580   18.5930 C   0  0  0  0  0  0  0  0  0  0  0  0
    5.7710    0.1150   17.4660 N   0  0  0  0  0  0  0  0  0  0  0  0
    4.8080    0.9960   17.6120 C   0  0  0  0  0  0  0  0  0  0  0  0
    4.2410    1.3650   18.8610 C   0  0  0  0  0  0  0  0  0  0  0  0
    3.1800    2.3090   18.9550 C   0  0  0  0  0  0  0  0  0  0  0  0
    2.6280    2.6230   20.1670 C   0  0  0  0  0  0  0  0  0  0  0  0
    3.1110    1.9980   21.3420 C   0  0  0  0  0  0  0  0  0  0  0  0
    4.1390    1.0900   21.2750 C   0  0  0  0  0  0  0  0  0  0  0  0
    4.7560    0.7650   20.0340 C   0  0  0  0  0  0  0  0  0  0  0  0
    4.4980    0.6230   22.1850 H   0  0  0  0  0  0  0  0  0  0  0  0
    2.6730    2.2510   22.3030 H   0  0  0  0  0  0  0  0  0  0  0  0
    1.8240    3.3530   20.2370 H   0  0  0  0  0  0  0  0  0  0  0  0
    2.8220    2.7770   18.0390 H   0  0  0  0  0  0  0  0  0  0  0  0
    4.4220    1.4570   16.7030 H   0  0  0  0  0  0  0  0  0  0  0  0
    7.0440   -1.1970   18.4310 H   0  0  0  0  0  0  0  0  0  0  0  0
    7.0990   -0.0940   21.9780 C   0  0  0  0  0  0  0  0  0  0  0  0
    7.2820    1.1050   21.9690 O   0  0  0  0  0  0  0  0  0  0  0  0
    7.4760   -1.0850   23.0950 C   0  0  1  0  0  0  0  0  0  0  0  0
    6.5360   -0.8040   24.2910 C   0  0  0  0  0  0  0  0  0  0  0  0
    6.9270   -1.5240   25.4890 N   0  0  0  0  0  0  0  0  0  0  0  0
    5.9120   -1.9960   26.4190 C   0  0  0  0  0  0  0  0  0  0  0  0
    5.4770   -0.9260   27.4270 C   0  0  0  0  0  0  0  0  0  0  0  0
    4.3540   -1.3620   28.3150 N   0  3  1  0  0  0  0  0  0  0  0  0
    4.7270   -2.5370   29.2090 C   0  0  0  0  0  0  0  0  0  0  0  0
    3.8560   -2.5430   30.4720 C   0  0  0  0  0  0  0  0  0  0  0  0
    2.5710   -2.0380   30.1900 O   0  0  0  0  0  0  0  0  0  0  0  0
    2.5570   -0.6300   29.9260 C   0  0  0  0  0  0  0  0  0  0  0  0
    1.2970   -0.3880   29.1010 C   0  0  0  0  0  0  0  0  0  0  0  0
    1.3330   -0.9650   28.1710 H   0  0  0  0  0  0  0  0  0  0  0  0
    0.4130   -0.6980   29.6700 H   0  0  0  0  0  0  0  0  0  0  0  0
    1.2060    0.6780   28.8570 H   0  0  0  0  0  0  0  0  0  0  0  0
    2.4790    0.1630   31.2360 C   0  0  0  0  0  0  0  0  0  0  0  0
    2.4060    1.2380   31.0210 H   0  0  0  0  0  0  0  0  0  0  0  0
    3.3640    0.0040   31.8640 H   0  0  0  0  0  0  0  0  0  0  0  0
    1.5930   -0.1400   31.8030 H   0  0  0  0  0  0  0  0  0  0  0  0
    3.8220   -0.2230   29.1430 C   0  0  0  0  0  0  0  0  0  0  0  0
    4.6120    0.1050   29.8330 H   0  0  0  0  0  0  0  0  0  0  0  0
    3.5850    0.6220   28.4890 H   0  0  0  0  0  0  0  0  0  0  0  0
    3.6930   -3.5630   30.8300 H   0  0  0  0  0  0  0  0  0  0  0  0
    4.3500   -1.9780   31.2780 H   0  0  0  0  0  0  0  0  0  0  0  0
    4.5750   -3.4600   28.6440 H   0  0  0  0  0  0  0  0  0  0  0  0
    5.7860   -2.4460   29.4700 H   0  0  0  0  0  0  0  0  0  0  0  0
    3.5640   -1.6770   27.7150 H   0  0  0  0  0  0  0  0  0  0  0  0
    6.3330   -0.6530   28.0610 H   0  0  0  0  0  0  0  0  0  0  0  0
    5.1430   -0.0260   26.8950 H   0  0  0  0  0  0  0  0  0  0  0  0
    5.0370   -2.3180   25.8350 H   0  0  0  0  0  0  0  0  0  0  0  0
    6.3270   -2.8610   26.9450 H   0  0  0  0  0  0  0  0  0  0  0  0
    8.2350   -1.5650   25.8870 C   0  0  0  0  0  0  0  0  0  0  0  0
    8.5570   -1.9950   26.9830 O   0  0  0  0  0  0  0  0  0  0  0  0
    9.2570   -1.1090   24.8950 C   0  0  0  0  0  0  0  0  0  0  0  0
   10.5880   -1.0090   25.3030 C   0  0  0  0  0  0  0  0  0  0  0  0
   11.5830   -0.7080   24.3930 C   0  0  0  0  0  0  0  0  0  0  0  0
   11.2320   -0.5250   23.0560 C   0  0  0  0  0  0  0  0  0  0  0  0
   12.4810   -0.1570   21.9060 Cl  0  0  0  0  0  0  0  0  0  0  0  0
    9.9190   -0.6300   22.6310 C   0  0  0  0  0  0  0  0  0  0  0  0
    8.9070   -0.8980   23.5580 C   0  0  0  0  0  0  0  0  0  0  0  0
    9.6820   -0.4860   21.5830 H   0  0  0  0  0  0  0  0  0  0  0  0
   12.6250   -0.6300   24.6860 H   0  0  0  0  0  0  0  0  0  0  0  0
   10.8180   -1.2040   26.3440 H   0  0  0  0  0  0  0  0  0  0  0  0
    6.5620    0.2850   24.4560 H   0  0  0  0  0  0  0  0  0  0  0  0
    5.5090   -1.1100   24.0450 H   0  0  0  0  0  0  0  0  0  0  0  0
    5.2480   -2.4440   21.5320 H   0  0  0  0  0  0  0  0  0  0  0  0
    6.5160   -2.7850   20.3600 H   0  0  0  0  0  0  0  0  0  0  0  0
    8.2410   -2.7420   21.9920 H   0  0  0  0  0  0  0  0  0  0  0  0
    7.4860   -3.7880   24.1520 H   0  0  0  0  0  0  0  0  0  0  0  0
    6.7410   -4.5780   22.7470 H   0  0  0  0  0  0  0  0  0  0  0  0
    5.8060   -3.4450   23.7340 H   0  0  0  0  0  0  0  0  0  0  0  0
  1  2  1  0  0  0  0
  1 70  1  0  0  0  0
  1 71  1  0  0  0  0
  1 72  1  0  0  0  0
  2  3  1  0  0  0  0
  2 23  1  0  0  0  0
  2 69  1  6  0  0  0
  3  4  1  0  0  0  0
  3 67  1  0  0  0  0
  3 68  1  0  0  0  0
  4  5  1  0  0  0  0
  4 21  1  0  0  0  0
  5  6  2  0  0  0  0
  5 14  1  0  0  0  0
  6  7  1  0  0  0  0
  6 20  1  0  0  0  0
  7  8  2  0  0  0  0
  8  9  1  0  0  0  0
  8 19  1  0  0  0  0
  9 10  2  0  0  0  0
  9 14  1  0  0  0  0
 10 11  1  0  0  0  0
 10 18  1  0  0  0  0
 11 12  2  0  0  0  0
 11 17  1  0  0  0  0
 12 13  1  0  0  0  0
 12 16  1  0  0  0  0
 13 14  2  0  0  0  0
 13 15  1  0  0  0  0
 21 22  2  0  0  0  0
 23 21  1  6  0  0  0
 23 24  1  0  0  0  0
 23 61  1  0  0  0  0
 24 25  1  0  0  0  0
 24 65  1  0  0  0  0
 24 66  1  0  0  0  0
 25 26  1  0  0  0  0
 25 53  1  0  0  0  0
 26 27  1  0  0  0  0
 26 51  1  0  0  0  0
 26 52  1  0  0  0  0
 27 28  1  0  0  0  0
 27 49  1  0  0  0  0
 27 50  1  0  0  0  0
 28 29  1  0  0  0  0
 28 41  1  0  0  0  0
 28 48  1  6  0  0  0
 29 30  1  0  0  0  0
 29 46  1  0  0  0  0
 29 47  1  0  0  0  0
 30 31  1  0  0  0  0
 30 44  1  0  0  0  0
 30 45  1  0  0  0  0
 31 32  1  0  0  0  0
 32 33  1  0  0  0  0
 32 37  1  0  0  0  0
 32 41  1  0  0  0  0
 33 34  1  0  0  0  0
 33 35  1  0  0  0  0
 33 36  1  0  0  0  0
 37 38  1  0  0  0  0
 37 39  1  0  0  0  0
 37 40  1  0  0  0  0
 41 42  1  0  0  0  0
 41 43  1  0  0  0  0
 53 54  2  0  0  0  0
 53 55  1  0  0  0  0
 55 56  2  0  0  0  0
 55 61  1  0  0  0  0
 56 57  1  0  0  0  0
 56 64  1  0  0  0  0
 57 58  2  0  0  0  0
 57 63  1  0  0  0  0
 58 59  1  0  0  0  0
 58 60  1  0  0  0  0
 60 61  2  0  0  0  0
 60 62  1  0  0  0  0
M  CHG  1  28   1
M  END
>  <MODEL>
       8

$$$$
best_conformers_32.pdb
 OpenBabel02042510453D

 72 77  0  0  1  0  0  0  0  0999 V2000
    6.8380   -3.6380   23.3060 C   0  0  0  0  0  0  0  0  0  0  0  0
    7.2840   -2.4760   22.4080 C   0  0  1  0  0  0  0  0  0  0  0  0
    6.3050   -2.2040   21.2550 C   0  0  0  0  0  0  0  0  0  0  0  0
    6.4590   -0.7870   20.9790 N   0  0  0  0  0  0  0  0  0  0  0  0
    5.8500   -0.1500   19.8660 C   0  0  0  0  0  0  0  0  0  0  0  0
    6.2590   -0.4570   18.5920 C   0  0  0  0  0  0  0  0  0  0  0  0
    5.7680    0.1160   17.4650 N   0  0  0  0  0  0  0  0  0  0  0  0
    4.8060    0.9970   17.6100 C   0  0  0  0  0  0  0  0  0  0  0  0
    4.2390    1.3660   18.8590 C   0  0  0  0  0  0  0  0  0  0  0  0
    3.1790    2.3100   18.9540 C   0  0  0  0  0  0  0  0  0  0  0  0
    2.6280    2.6250   20.1680 C   0  0  0  0  0  0  0  0  0  0  0  0
    3.1120    1.9980   21.3420 C   0  0  0  0  0  0  0  0  0  0  0  0
    4.1400    1.0910   21.2720 C   0  0  0  0  0  0  0  0  0  0  0  0
    4.7560    0.7650   20.0320 C   0  0  0  0  0  0  0  0  0  0  0  0
    4.5000    0.6220   22.1820 H   0  0  0  0  0  0  0  0  0  0  0  0
    2.6750    2.2510   22.3040 H   0  0  0  0  0  0  0  0  0  0  0  0
    1.8240    3.3530   20.2390 H   0  0  0  0  0  0  0  0  0  0  0  0
    2.8190    2.7790   18.0400 H   0  0  0  0  0  0  0  0  0  0  0  0
    4.4200    1.4590   16.7010 H   0  0  0  0  0  0  0  0  0  0  0  0
    7.0430   -1.1950   18.4270 H   0  0  0  0  0  0  0  0  0  0  0  0
    7.1060   -0.0900   21.9790 C   0  0  0  0  0  0  0  0  0  0  0  0
    7.2810    1.1130   21.9720 O   0  0  0  0  0  0  0  0  0  0  0  0
    7.4970   -1.0780   23.0900 C   0  0  1  0  0  0  0  0  0  0  0  0
    6.5640   -0.8080   24.2940 C   0  0  0  0  0  0  0  0  0  0  0  0
    6.9690   -1.5280   25.4860 N   0  0  0  0  0  0  0  0  0  0  0  0
    5.9620   -2.0100   26.4240 C   0  0  0  0  0  0  0  0  0  0  0  0
    5.5230   -0.9460   27.4360 C   0  0  0  0  0  0  0  0  0  0  0  0
    4.4130   -1.3940   28.3320 N   0  3  1  0  0  0  0  0  0  0  0  0
    4.8060   -2.5650   29.2210 C   0  0  0  0  0  0  0  0  0  0  0  0
    3.9500   -2.5830   30.4930 C   0  0  0  0  0  0  0  0  0  0  0  0
    2.6560   -2.0920   30.2260 O   0  0  0  0  0  0  0  0  0  0  0  0
    2.6250   -0.6840   29.9610 C   0  0  0  0  0  0  0  0  0  0  0  0
    2.5500    0.1090   31.2720 C   0  0  0  0  0  0  0  0  0  0  0  0
    2.4640    1.1830   31.0590 H   0  0  0  0  0  0  0  0  0  0  0  0
    3.4430   -0.0420   31.8930 H   0  0  0  0  0  0  0  0  0  0  0  0
    1.6720   -0.2040   31.8480 H   0  0  0  0  0  0  0  0  0  0  0  0
    1.3550   -0.4540   29.1490 C   0  0  0  0  0  0  0  0  0  0  0  0
    1.2520    0.6110   28.9060 H   0  0  0  0  0  0  0  0  0  0  0  0
    0.4780   -0.7730   29.7240 H   0  0  0  0  0  0  0  0  0  0  0  0
    1.3880   -1.0290   28.2160 H   0  0  0  0  0  0  0  0  0  0  0  0
    3.8780   -0.2630   29.1650 C   0  0  0  0  0  0  0  0  0  0  0  0
    3.6240    0.5800   28.5150 H   0  0  0  0  0  0  0  0  0  0  0  0
    4.6710    0.0730   29.8470 H   0  0  0  0  0  0  0  0  0  0  0  0
    4.4470   -2.0150   31.2960 H   0  0  0  0  0  0  0  0  0  0  0  0
    3.8040   -3.6050   30.8490 H   0  0  0  0  0  0  0  0  0  0  0  0
    4.6590   -3.4900   28.6560 H   0  0  0  0  0  0  0  0  0  0  0  0
    5.8670   -2.4630   29.4720 H   0  0  0  0  0  0  0  0  0  0  0  0
    3.6210   -1.7160   27.7380 H   0  0  0  0  0  0  0  0  0  0  0  0
    5.1770   -0.0490   26.9070 H   0  0  0  0  0  0  0  0  0  0  0  0
    6.3820   -0.6670   28.0620 H   0  0  0  0  0  0  0  0  0  0  0  0
    6.3820   -2.8760   26.9450 H   0  0  0  0  0  0  0  0  0  0  0  0
    5.0860   -2.3350   25.8450 H   0  0  0  0  0  0  0  0  0  0  0  0
    8.2810   -1.5510   25.8750 C   0  0  0  0  0  0  0  0  0  0  0  0
    8.6160   -1.9700   26.9710 O   0  0  0  0  0  0  0  0  0  0  0  0
    9.2930   -1.0900   24.8750 C   0  0  0  0  0  0  0  0  0  0  0  0
   10.6260   -0.9830   25.2730 C   0  0  0  0  0  0  0  0  0  0  0  0
   11.6130   -0.6750   24.3570 C   0  0  0  0  0  0  0  0  0  0  0  0
   11.2480   -0.4920   23.0250 C   0  0  0  0  0  0  0  0  0  0  0  0
   12.4870   -0.1140   21.8680 Cl  0  0  0  0  0  0  0  0  0  0  0  0
    9.9340   -0.6070   22.6090 C   0  0  0  0  0  0  0  0  0  0  0  0
    8.9310   -0.8840   23.5420 C   0  0  0  0  0  0  0  0  0  0  0  0
    9.6870   -0.4640   21.5630 H   0  0  0  0  0  0  0  0  0  0  0  0
   12.6560   -0.5870   24.6420 H   0  0  0  0  0  0  0  0  0  0  0  0
   10.8700   -1.1770   26.3110 H   0  0  0  0  0  0  0  0  0  0  0  0
    6.5800    0.2810   24.4630 H   0  0  0  0  0  0  0  0  0  0  0  0
    5.5380   -1.1190   24.0560 H   0  0  0  0  0  0  0  0  0  0  0  0
    5.2680   -2.4550   21.5340 H   0  0  0  0  0  0  0  0  0  0  0  0
    6.5350   -2.7790   20.3580 H   0  0  0  0  0  0  0  0  0  0  0  0
    8.2650   -2.7310   21.9810 H   0  0  0  0  0  0  0  0  0  0  0  0
    6.7820   -4.5770   22.7400 H   0  0  0  0  0  0  0  0  0  0  0  0
    5.8450   -3.4500   23.7350 H   0  0  0  0  0  0  0  0  0  0  0  0
    7.5280   -3.7820   24.1430 H   0  0  0  0  0  0  0  0  0  0  0  0
  1  2  1  0  0  0  0
  1 70  1  0  0  0  0
  1 71  1  0  0  0  0
  1 72  1  0  0  0  0
  2  3  1  0  0  0  0
  2 23  1  0  0  0  0
  2 69  1  6  0  0  0
  3  4  1  0  0  0  0
  3 67  1  0  0  0  0
  3 68  1  0  0  0  0
  4  5  1  0  0  0  0
  4 21  1  0  0  0  0
  5  6  2  0  0  0  0
  5 14  1  0  0  0  0
  6  7  1  0  0  0  0
  6 20  1  0  0  0  0
  7  8  2  0  0  0  0
  8  9  1  0  0  0  0
  8 19  1  0  0  0  0
  9 10  2  0  0  0  0
  9 14  1  0  0  0  0
 10 11  1  0  0  0  0
 10 18  1  0  0  0  0
 11 12  2  0  0  0  0
 11 17  1  0  0  0  0
 12 13  1  0  0  0  0
 12 16  1  0  0  0  0
 13 14  2  0  0  0  0
 13 15  1  0  0  0  0
 21 22  2  0  0  0  0
 23 21  1  6  0  0  0
 23 24  1  0  0  0  0
 23 61  1  0  0  0  0
 24 25  1  0  0  0  0
 24 65  1  0  0  0  0
 24 66  1  0  0  0  0
 25 26  1  0  0  0  0
 25 53  1  0  0  0  0
 26 27  1  0  0  0  0
 26 51  1  0  0  0  0
 26 52  1  0  0  0  0
 27 28  1  0  0  0  0
 27 49  1  0  0  0  0
 27 50  1  0  0  0  0
 28 29  1  0  0  0  0
 28 41  1  0  0  0  0
 28 48  1  6  0  0  0
 29 30  1  0  0  0  0
 29 46  1  0  0  0  0
 29 47  1  0  0  0  0
 30 31  1  0  0  0  0
 30 44  1  0  0  0  0
 30 45  1  0  0  0  0
 31 32  1  0  0  0  0
 32 33  1  0  0  0  0
 32 37  1  0  0  0  0
 32 41  1  0  0  0  0
 33 34  1  0  0  0  0
 33 35  1  0  0  0  0
 33 36  1  0  0  0  0
 37 38  1  0  0  0  0
 37 39  1  0  0  0  0
 37 40  1  0  0  0  0
 41 42  1  0  0  0  0
 41 43  1  0  0  0  0
 53 54  2  0  0  0  0
 53 55  1  0  0  0  0
 55 56  2  0  0  0  0
 55 61  1  0  0  0  0
 56 57  1  0  0  0  0
 56 64  1  0  0  0  0
 57 58  2  0  0  0  0
 57 63  1  0  0  0  0
 58 59  1  0  0  0  0
 58 60  1  0  0  0  0
 60 61  2  0  0  0  0
 60 62  1  0  0  0  0
M  CHG  1  28   1
M  END
>  <MODEL>
       9

$$$$
best_conformers_32.pdb
 OpenBabel02042510453D

 72 77  0  0  1  0  0  0  0  0999 V2000
    6.4360   -3.5410   23.4740 C   0  0  0  0  0  0  0  0  0  0  0  0
    7.0350   -2.5130   22.5060 C   0  0  1  0  0  0  0  0  0  0  0  0
    6.1050   -2.1920   21.3250 C   0  0  0  0  0  0  0  0  0  0  0  0
    6.4390   -0.8240   20.9680 N   0  0  0  0  0  0  0  0  0  0  0  0
    5.8420   -0.1590   19.8610 C   0  0  0  0  0  0  0  0  0  0  0  0
    6.2540   -0.4590   18.5900 C   0  0  0  0  0  0  0  0  0  0  0  0
    5.7660    0.1170   17.4620 N   0  0  0  0  0  0  0  0  0  0  0  0
    4.8050    0.9990   17.6060 C   0  0  0  0  0  0  0  0  0  0  0  0
    4.2390    1.3700   18.8580 C   0  0  0  0  0  0  0  0  0  0  0  0
    3.1780    2.3140   18.9560 C   0  0  0  0  0  0  0  0  0  0  0  0
    2.6370    2.6300   20.1700 C   0  0  0  0  0  0  0  0  0  0  0  0
    3.1290    2.0110   21.3450 C   0  0  0  0  0  0  0  0  0  0  0  0
    4.1550    1.1040   21.2750 C   0  0  0  0  0  0  0  0  0  0  0  0
    4.7580    0.7680   20.0290 C   0  0  0  0  0  0  0  0  0  0  0  0
    4.5220    0.6350   22.1830 H   0  0  0  0  0  0  0  0  0  0  0  0
    2.6950    2.2690   22.3080 H   0  0  0  0  0  0  0  0  0  0  0  0
    1.8320    3.3590   20.2450 H   0  0  0  0  0  0  0  0  0  0  0  0
    2.8140    2.7800   18.0420 H   0  0  0  0  0  0  0  0  0  0  0  0
    4.4190    1.4620   16.6980 H   0  0  0  0  0  0  0  0  0  0  0  0
    7.0370   -1.1990   18.4300 H   0  0  0  0  0  0  0  0  0  0  0  0
    7.1530   -0.1520   21.9350 C   0  0  0  0  0  0  0  0  0  0  0  0
    7.4590    1.0230   21.8690 O   0  0  0  0  0  0  0  0  0  0  0  0
    7.4390   -1.1150   23.1000 C   0  0  1  0  0  0  0  0  0  0  0  0
    6.5770   -0.6520   24.3030 C   0  0  0  0  0  0  0  0  0  0  0  0
    6.9120   -1.3550   25.5290 N   0  0  0  0  0  0  0  0  0  0  0  0
    5.8710   -1.6350   26.5130 C   0  0  0  0  0  0  0  0  0  0  0  0
    5.6450   -0.4800   27.4930 C   0  0  0  0  0  0  0  0  0  0  0  0
    4.4870   -0.6930   28.4150 N   0  3  1  0  0  0  0  0  0  0  0  0
    4.6700   -1.9000   29.3270 C   0  0  0  0  0  0  0  0  0  0  0  0
    3.8440   -1.7350   30.6070 C   0  0  0  0  0  0  0  0  0  0  0  0
    2.6640   -1.0090   30.3470 O   0  0  0  0  0  0  0  0  0  0  0  0
    2.8970    0.3760   30.0550 C   0  0  0  0  0  0  0  0  0  0  0  0
    1.6810    0.8320   29.2570 C   0  0  0  0  0  0  0  0  0  0  0  0
    0.7700    0.6970   29.8500 H   0  0  0  0  0  0  0  0  0  0  0  0
    1.5860    0.2470   28.3340 H   0  0  0  0  0  0  0  0  0  0  0  0
    1.7800    1.8920   28.9960 H   0  0  0  0  0  0  0  0  0  0  0  0
    3.0000    1.1880   31.3510 C   0  0  0  0  0  0  0  0  0  0  0  0
    3.1140    2.2560   31.1180 H   0  0  0  0  0  0  0  0  0  0  0  0
    2.0910    1.0570   31.9470 H   0  0  0  0  0  0  0  0  0  0  0  0
    3.8600    0.8820   31.9600 H   0  0  0  0  0  0  0  0  0  0  0  0
    4.1920    0.5350   29.2320 C   0  0  0  0  0  0  0  0  0  0  0  0
    4.0930    1.3970   28.5650 H   0  0  0  0  0  0  0  0  0  0  0  0
    5.0490    0.7260   29.8920 H   0  0  0  0  0  0  0  0  0  0  0  0
    3.5130   -2.7060   30.9810 H   0  0  0  0  0  0  0  0  0  0  0  0
    4.4500   -1.2600   31.3950 H   0  0  0  0  0  0  0  0  0  0  0  0
    4.3490   -2.7910   28.7830 H   0  0  0  0  0  0  0  0  0  0  0  0
    5.7340   -1.9890   29.5670 H   0  0  0  0  0  0  0  0  0  0  0  0
    3.6380   -0.8720   27.8420 H   0  0  0  0  0  0  0  0  0  0  0  0
    6.5490   -0.3380   28.1010 H   0  0  0  0  0  0  0  0  0  0  0  0
    5.4570    0.4460   26.9380 H   0  0  0  0  0  0  0  0  0  0  0  0
    6.1570   -2.5410   27.0570 H   0  0  0  0  0  0  0  0  0  0  0  0
    4.9330   -1.8330   25.9730 H   0  0  0  0  0  0  0  0  0  0  0  0
    8.2140   -1.5440   25.8910 C   0  0  0  0  0  0  0  0  0  0  0  0
    8.5170   -1.9570   26.9970 O   0  0  0  0  0  0  0  0  0  0  0  0
    9.2600   -1.2760   24.8530 C   0  0  0  0  0  0  0  0  0  0  0  0
   10.6050   -1.3310   25.2230 C   0  0  0  0  0  0  0  0  0  0  0  0
   11.6040   -1.2030   24.2760 C   0  0  0  0  0  0  0  0  0  0  0  0
   11.2360   -1.0380   22.9420 C   0  0  0  0  0  0  0  0  0  0  0  0
   12.4820   -0.8880   21.7390 Cl  0  0  0  0  0  0  0  0  0  0  0  0
    9.9080   -0.9940   22.5560 C   0  0  0  0  0  0  0  0  0  0  0  0
    8.8970   -1.0870   23.5180 C   0  0  0  0  0  0  0  0  0  0  0  0
    9.6610   -0.8730   21.5080 H   0  0  0  0  0  0  0  0  0  0  0  0
   12.6570   -1.2430   24.5420 H   0  0  0  0  0  0  0  0  0  0  0  0
   10.8490   -1.5040   26.2650 H   0  0  0  0  0  0  0  0  0  0  0  0
    6.7430    0.4310   24.4120 H   0  0  0  0  0  0  0  0  0  0  0  0
    5.5130   -0.8300   24.0990 H   0  0  0  0  0  0  0  0  0  0  0  0
    6.2670   -2.8580   20.4740 H   0  0  0  0  0  0  0  0  0  0  0  0
    5.0460   -2.2890   21.6140 H   0  0  0  0  0  0  0  0  0  0  0  0
    7.9700   -2.9260   22.1040 H   0  0  0  0  0  0  0  0  0  0  0  0
    6.2400   -4.4930   22.9650 H   0  0  0  0  0  0  0  0  0  0  0  0
    7.1110   -3.7340   24.3130 H   0  0  0  0  0  0  0  0  0  0  0  0
    5.4870   -3.1900   23.8960 H   0  0  0  0  0  0  0  0  0  0  0  0
  1  2  1  0  0  0  0
  1 70  1  0  0  0  0
  1 71  1  0  0  0  0
  1 72  1  0  0  0  0
  2  3  1  0  0  0  0
  2 23  1  0  0  0  0
  2 69  1  6  0  0  0
  3  4  1  0  0  0  0
  3 67  1  0  0  0  0
  3 68  1  0  0  0  0
  4  5  1  0  0  0  0
  4 21  1  0  0  0  0
  5  6  2  0  0  0  0
  5 14  1  0  0  0  0
  6  7  1  0  0  0  0
  6 20  1  0  0  0  0
  7  8  2  0  0  0  0
  8  9  1  0  0  0  0
  8 19  1  0  0  0  0
  9 10  2  0  0  0  0
  9 14  1  0  0  0  0
 10 11  1  0  0  0  0
 10 18  1  0  0  0  0
 11 12  2  0  0  0  0
 11 17  1  0  0  0  0
 12 13  1  0  0  0  0
 12 16  1  0  0  0  0
 13 14  2  0  0  0  0
 13 15  1  0  0  0  0
 21 22  2  0  0  0  0
 23 21  1  6  0  0  0
 23 24  1  0  0  0  0
 23 61  1  0  0  0  0
 24 25  1  0  0  0  0
 24 65  1  0  0  0  0
 24 66  1  0  0  0  0
 25 26  1  0  0  0  0
 25 53  1  0  0  0  0
 26 27  1  0  0  0  0
 26 51  1  0  0  0  0
 26 52  1  0  0  0  0
 27 28  1  0  0  0  0
 27 49  1  0  0  0  0
 27 50  1  0  0  0  0
 28 29  1  0  0  0  0
 28 41  1  0  0  0  0
 28 48  1  6  0  0  0
 29 30  1  0  0  0  0
 29 46  1  0  0  0  0
 29 47  1  0  0  0  0
 30 31  1  0  0  0  0
 30 44  1  0  0  0  0
 30 45  1  0  0  0  0
 31 32  1  0  0  0  0
 32 33  1  0  0  0  0
 32 37  1  0  0  0  0
 32 41  1  0  0  0  0
 33 34  1  0  0  0  0
 33 35  1  0  0  0  0
 33 36  1  0  0  0  0
 37 38  1  0  0  0  0
 37 39  1  0  0  0  0
 37 40  1  0  0  0  0
 41 42  1  0  0  0  0
 41 43  1  0  0  0  0
 53 54  2  0  0  0  0
 53 55  1  0  0  0  0
 55 56  2  0  0  0  0
 55 61  1  0  0  0  0
 56 57  1  0  0  0  0
 56 64  1  0  0  0  0
 57 58  2  0  0  0  0
 57 63  1  0  0  0  0
 58 59  1  0  0  0  0
 58 60  1  0  0  0  0
 60 61  2  0  0  0  0
 60 62  1  0  0  0  0
M  CHG  1  28   1
M  END
>  <MODEL>
      10

$$$$
