best_conformers_63.pdb
 OpenBabel02042510453D

 56 61  0  0  1  0  0  0  0  0999 V2000
    8.2780   -8.7700   23.8130 C   0  0  0  0  0  0  0  0  0  0  0  0
    7.0240   -8.0720   24.0030 N   0  0  0  0  0  0  0  0  0  0  0  0
    6.1130   -8.2760   24.9830 C   0  0  0  0  0  0  0  0  0  0  0  0
    5.1140   -7.3520   24.7940 C   0  0  0  0  0  0  0  0  0  0  0  0
    5.5330   -6.6080   23.6730 C   0  0  0  0  0  0  0  0  0  0  0  0
    4.8690   -5.4090   23.0620 C   0  0  0  0  0  0  0  0  0  0  0  0
    5.3250   -4.1380   23.5980 N   0  0  0  0  0  0  0  0  0  0  0  0
    6.6040   -3.6330   23.1520 C   0  0  0  0  0  0  0  0  0  0  0  0
    6.5640   -2.1020   22.9830 C   0  0  1  0  0  0  0  0  0  0  0  0
    7.9560   -1.5680   22.5920 C   0  0  0  0  0  0  0  0  0  0  0  0
    7.7700   -0.6130   21.3950 C   0  0  0  0  0  0  0  0  0  0  0  0
    6.4070   -0.8730   20.9560 N   0  0  0  0  0  0  0  0  0  0  0  0
    5.8040   -0.2120   19.8570 C   0  0  0  0  0  0  0  0  0  0  0  0
    6.2590   -0.4620   18.5880 C   0  0  0  0  0  0  0  0  0  0  0  0
    5.7860    0.1290   17.4640 N   0  0  0  0  0  0  0  0  0  0  0  0
    4.8110    0.9960   17.6130 C   0  0  0  0  0  0  0  0  0  0  0  0
    4.2400    1.3580   18.8670 C   0  0  0  0  0  0  0  0  0  0  0  0
    3.1930    2.3190   18.9590 C   0  0  0  0  0  0  0  0  0  0  0  0
    2.6790    2.6700   20.1750 C   0  0  0  0  0  0  0  0  0  0  0  0
    3.2000    2.0880   21.3540 C   0  0  0  0  0  0  0  0  0  0  0  0
    4.2120    1.1620   21.2940 C   0  0  0  0  0  0  0  0  0  0  0  0
    4.7510    0.7500   20.0380 C   0  0  0  0  0  0  0  0  0  0  0  0
    4.5980    0.7330   22.2180 H   0  0  0  0  0  0  0  0  0  0  0  0
    2.7840    2.3740   22.3170 H   0  0  0  0  0  0  0  0  0  0  0  0
    1.8780    3.4020   20.2450 H   0  0  0  0  0  0  0  0  0  0  0  0
    2.8220    2.7710   18.0400 H   0  0  0  0  0  0  0  0  0  0  0  0
    4.4190    1.4540   16.7050 H   0  0  0  0  0  0  0  0  0  0  0  0
    7.0550   -1.1890   18.4320 H   0  0  0  0  0  0  0  0  0  0  0  0
    5.6900   -1.7250   21.7660 C   0  0  0  0  0  0  0  0  0  0  0  0
    4.5630   -2.1040   21.5400 O   0  0  0  0  0  0  0  0  0  0  0  0
    7.8980    0.4440   21.6720 H   0  0  0  0  0  0  0  0  0  0  0  0
    8.4720   -0.8180   20.5790 H   0  0  0  0  0  0  0  0  0  0  0  0
    8.5840   -2.4140   22.2970 H   0  0  0  0  0  0  0  0  0  0  0  0
    8.4520   -1.0940   23.4410 H   0  0  0  0  0  0  0  0  0  0  0  0
    5.9770   -1.4990   24.2430 C   0  0  0  0  0  0  0  0  0  0  0  0
    6.2090   -0.1530   24.5450 C   0  0  0  0  0  0  0  0  0  0  0  0
    5.6370    0.4080   25.6720 C   0  0  0  0  0  0  0  0  0  0  0  0
    5.9300    2.0840   26.0340 Cl  0  0  0  0  0  0  0  0  0  0  0  0
    4.8250   -0.3390   26.5240 C   0  0  0  0  0  0  0  0  0  0  0  0
    4.5700   -1.6610   26.2150 C   0  0  0  0  0  0  0  0  0  0  0  0
    5.1230   -2.2370   25.0720 C   0  0  0  0  0  0  0  0  0  0  0  0
    4.7230   -3.6360   24.7190 C   0  0  0  0  0  0  0  0  0  0  0  0
    3.8980   -4.2770   25.3590 O   0  0  0  0  0  0  0  0  0  0  0  0
    3.9200   -2.2780   26.8250 H   0  0  0  0  0  0  0  0  0  0  0  0
    4.3930    0.1320   27.3980 H   0  0  0  0  0  0  0  0  0  0  0  0
    6.8230    0.4750   23.9060 H   0  0  0  0  0  0  0  0  0  0  0  0
    6.8200   -4.0990   22.1880 H   0  0  0  0  0  0  0  0  0  0  0  0
    7.4000   -3.8970   23.8670 H   0  0  0  0  0  0  0  0  0  0  0  0
    5.0600   -5.3930   21.9800 H   0  0  0  0  0  0  0  0  0  0  0  0
    3.7940   -5.4640   23.2440 H   0  0  0  0  0  0  0  0  0  0  0  0
    6.6800   -7.0650   23.1920 N   0  0  0  0  0  0  0  0  0  0  0  0
    4.2120   -7.1820   25.3700 H   0  0  0  0  0  0  0  0  0  0  0  0
    6.2630   -9.0030   25.7690 H   0  0  0  0  0  0  0  0  0  0  0  0
    9.0160   -8.4590   24.5630 H   0  0  0  0  0  0  0  0  0  0  0  0
    8.6500   -8.5530   22.8150 H   0  0  0  0  0  0  0  0  0  0  0  0
    8.0500   -9.8260   23.9310 H   0  0  0  0  0  0  0  0  0  0  0  0
  1  2  1  0  0  0  0
  1 54  1  0  0  0  0
  1 55  1  0  0  0  0
  1 56  1  0  0  0  0
  2  3  1  0  0  0  0
  2 51  1  0  0  0  0
  3  4  2  0  0  0  0
  3 53  1  0  0  0  0
  4  5  1  0  0  0  0
  4 52  1  0  0  0  0
  5  6  1  0  0  0  0
  5 51  2  0  0  0  0
  6  7  1  0  0  0  0
  6 49  1  0  0  0  0
  6 50  1  0  0  0  0
  7  8  1  0  0  0  0
  7 42  1  0  0  0  0
  8  9  1  0  0  0  0
  8 47  1  0  0  0  0
  8 48  1  0  0  0  0
  9 10  1  0  0  0  0
  9 29  1  6  0  0  0
  9 35  1  0  0  0  0
 10 11  1  0  0  0  0
 10 33  1  0  0  0  0
 10 34  1  0  0  0  0
 11 12  1  0  0  0  0
 11 31  1  0  0  0  0
 11 32  1  0  0  0  0
 12 13  1  0  0  0  0
 12 29  1  0  0  0  0
 13 14  2  0  0  0  0
 13 22  1  0  0  0  0
 14 15  1  0  0  0  0
 14 28  1  0  0  0  0
 15 16  2  0  0  0  0
 16 17  1  0  0  0  0
 16 27  1  0  0  0  0
 17 18  2  0  0  0  0
 17 22  1  0  0  0  0
 18 19  1  0  0  0  0
 18 26  1  0  0  0  0
 19 20  2  0  0  0  0
 19 25  1  0  0  0  0
 20 21  1  0  0  0  0
 20 24  1  0  0  0  0
 21 22  2  0  0  0  0
 21 23  1  0  0  0  0
 29 30  2  0  0  0  0
 35 36  2  0  0  0  0
 35 41  1  0  0  0  0
 36 37  1  0  0  0  0
 36 46  1  0  0  0  0
 37 38  1  0  0  0  0
 37 39  2  0  0  0  0
 39 40  1  0  0  0  0
 39 45  1  0  0  0  0
 40 41  2  0  0  0  0
 40 44  1  0  0  0  0
 41 42  1  0  0  0  0
 42 43  2  0  0  0  0
M  END
>  <MODEL>
       1

$$$$
best_conformers_63.pdb
 OpenBabel02042510453D

 56 61  0  0  1  0  0  0  0  0999 V2000
    7.0470   -7.0520   24.9680 C   0  0  0  0  0  0  0  0  0  0  0  0
    6.3240   -5.8180   25.1830 N   0  0  0  0  0  0  0  0  0  0  0  0
    5.0830   -5.5300   24.7230 C   0  0  0  0  0  0  0  0  0  0  0  0
    4.8290   -4.2180   25.0260 C   0  0  0  0  0  0  0  0  0  0  0  0
    5.9980   -3.7870   25.6880 C   0  0  0  0  0  0  0  0  0  0  0  0
    6.2770   -2.4210   26.2390 C   0  0  0  0  0  0  0  0  0  0  0  0
    7.2140   -1.6620   25.4250 N   0  0  0  0  0  0  0  0  0  0  0  0
    6.7520   -0.8360   24.3260 C   0  0  0  0  0  0  0  0  0  0  0  0
    7.5820   -1.0940   23.0440 C   0  0  1  0  0  0  0  0  0  0  0  0
    7.2510   -2.4740   22.4090 C   0  0  0  0  0  0  0  0  0  0  0  0
    6.2800   -2.1990   21.2590 C   0  0  0  0  0  0  0  0  0  0  0  0
    6.4360   -0.7790   21.0100 N   0  0  0  0  0  0  0  0  0  0  0  0
    5.8420   -0.1480   19.8950 C   0  0  0  0  0  0  0  0  0  0  0  0
    6.2740   -0.4600   18.6310 C   0  0  0  0  0  0  0  0  0  0  0  0
    5.8040    0.1020   17.4910 N   0  0  0  0  0  0  0  0  0  0  0  0
    4.8350    0.9790   17.6210 C   0  0  0  0  0  0  0  0  0  0  0  0
    4.2610    1.3570   18.8690 C   0  0  0  0  0  0  0  0  0  0  0  0
    3.2010    2.2990   18.9460 C   0  0  0  0  0  0  0  0  0  0  0  0
    2.6420    2.6150   20.1530 C   0  0  0  0  0  0  0  0  0  0  0  0
    3.1070    2.0030   21.3400 C   0  0  0  0  0  0  0  0  0  0  0  0
    4.1360    1.0990   21.2940 C   0  0  0  0  0  0  0  0  0  0  0  0
    4.7570    0.7690   20.0530 C   0  0  0  0  0  0  0  0  0  0  0  0
    4.4870    0.6410   22.2130 H   0  0  0  0  0  0  0  0  0  0  0  0
    2.6480    2.2570   22.2920 H   0  0  0  0  0  0  0  0  0  0  0  0
    1.8340    3.3380   20.2080 H   0  0  0  0  0  0  0  0  0  0  0  0
    2.8500    2.7580   18.0250 H   0  0  0  0  0  0  0  0  0  0  0  0
    4.4440    1.4320   16.7080 H   0  0  0  0  0  0  0  0  0  0  0  0
    7.0710   -1.1920   18.5060 H   0  0  0  0  0  0  0  0  0  0  0  0
    7.1220   -0.0940   21.9830 C   0  0  0  0  0  0  0  0  0  0  0  0
    7.2870    1.1100   21.9940 O   0  0  0  0  0  0  0  0  0  0  0  0
    6.5140   -2.7460   20.3470 H   0  0  0  0  0  0  0  0  0  0  0  0
    5.2390   -2.4360   21.5190 H   0  0  0  0  0  0  0  0  0  0  0  0
    8.1720   -2.9390   22.0490 H   0  0  0  0  0  0  0  0  0  0  0  0
    6.8070   -3.1410   23.1500 H   0  0  0  0  0  0  0  0  0  0  0  0
    9.0470   -0.9530   23.4040 C   0  0  0  0  0  0  0  0  0  0  0  0
   10.0040   -0.5980   22.4510 C   0  0  0  0  0  0  0  0  0  0  0  0
   11.3450   -0.5710   22.8070 C   0  0  0  0  0  0  0  0  0  0  0  0
   12.5540   -0.1380   21.6410 Cl  0  0  0  0  0  0  0  0  0  0  0  0
   11.7780   -0.8960   24.0910 C   0  0  0  0  0  0  0  0  0  0  0  0
   10.8330   -1.2600   25.0250 C   0  0  0  0  0  0  0  0  0  0  0  0
    9.4850   -1.2920   24.6860 C   0  0  0  0  0  0  0  0  0  0  0  0
    8.5410   -1.7670   25.7340 C   0  0  0  0  0  0  0  0  0  0  0  0
    8.9310   -2.2450   26.7880 O   0  0  0  0  0  0  0  0  0  0  0  0
   11.1050   -1.5430   26.0340 H   0  0  0  0  0  0  0  0  0  0  0  0
   12.8360   -0.8720   24.3340 H   0  0  0  0  0  0  0  0  0  0  0  0
    9.7000   -0.3450   21.4420 H   0  0  0  0  0  0  0  0  0  0  0  0
    5.6960   -1.0610   24.1420 H   0  0  0  0  0  0  0  0  0  0  0  0
    6.8350    0.2280   24.5830 H   0  0  0  0  0  0  0  0  0  0  0  0
    6.7330   -2.5300   27.2270 H   0  0  0  0  0  0  0  0  0  0  0  0
    5.3480   -1.8470   26.3250 H   0  0  0  0  0  0  0  0  0  0  0  0
    6.8920   -4.7640   25.7870 N   0  0  0  0  0  0  0  0  0  0  0  0
    3.9490   -3.6350   24.7670 H   0  0  0  0  0  0  0  0  0  0  0  0
    4.4720   -6.2570   24.2140 H   0  0  0  0  0  0  0  0  0  0  0  0
    6.7760   -7.8110   25.7050 H   0  0  0  0  0  0  0  0  0  0  0  0
    8.1210   -6.8620   25.0360 H   0  0  0  0  0  0  0  0  0  0  0  0
    6.7830   -7.4410   23.9830 H   0  0  0  0  0  0  0  0  0  0  0  0
  1  2  1  0  0  0  0
  1 54  1  0  0  0  0
  1 55  1  0  0  0  0
  1 56  1  0  0  0  0
  2  3  1  0  0  0  0
  2 51  1  0  0  0  0
  3  4  2  0  0  0  0
  3 53  1  0  0  0  0
  4  5  1  0  0  0  0
  4 52  1  0  0  0  0
  5  6  1  0  0  0  0
  5 51  2  0  0  0  0
  6  7  1  0  0  0  0
  6 49  1  0  0  0  0
  6 50  1  0  0  0  0
  7  8  1  0  0  0  0
  7 42  1  0  0  0  0
  8  9  1  0  0  0  0
  8 47  1  0  0  0  0
  8 48  1  0  0  0  0
  9 10  1  0  0  0  0
  9 29  1  6  0  0  0
  9 35  1  0  0  0  0
 10 11  1  0  0  0  0
 10 33  1  0  0  0  0
 10 34  1  0  0  0  0
 11 12  1  0  0  0  0
 11 31  1  0  0  0  0
 11 32  1  0  0  0  0
 12 13  1  0  0  0  0
 12 29  1  0  0  0  0
 13 14  2  0  0  0  0
 13 22  1  0  0  0  0
 14 15  1  0  0  0  0
 14 28  1  0  0  0  0
 15 16  2  0  0  0  0
 16 17  1  0  0  0  0
 16 27  1  0  0  0  0
 17 18  2  0  0  0  0
 17 22  1  0  0  0  0
 18 19  1  0  0  0  0
 18 26  1  0  0  0  0
 19 20  2  0  0  0  0
 19 25  1  0  0  0  0
 20 21  1  0  0  0  0
 20 24  1  0  0  0  0
 21 22  2  0  0  0  0
 21 23  1  0  0  0  0
 29 30  2  0  0  0  0
 35 36  2  0  0  0  0
 35 41  1  0  0  0  0
 36 37  1  0  0  0  0
 36 46  1  0  0  0  0
 37 38  1  0  0  0  0
 37 39  2  0  0  0  0
 39 40  1  0  0  0  0
 39 45  1  0  0  0  0
 40 41  2  0  0  0  0
 40 44  1  0  0  0  0
 41 42  1  0  0  0  0
 42 43  2  0  0  0  0
M  END
>  <MODEL>
       2

$$$$
best_conformers_63.pdb
 OpenBabel02042510453D

 56 61  0  0  1  0  0  0  0  0999 V2000
    4.0070   -5.9630   23.8540 C   0  0  0  0  0  0  0  0  0  0  0  0
    4.9760   -5.2780   24.6920 N   0  0  0  0  0  0  0  0  0  0  0  0
    6.0880   -5.8180   25.2340 C   0  0  0  0  0  0  0  0  0  0  0  0
    6.7140   -4.8150   25.9360 C   0  0  0  0  0  0  0  0  0  0  0  0
    5.9010   -3.6840   25.7510 C   0  0  0  0  0  0  0  0  0  0  0  0
    6.1880   -2.2980   26.2730 C   0  0  0  0  0  0  0  0  0  0  0  0
    7.1840   -1.5910   25.4690 N   0  0  0  0  0  0  0  0  0  0  0  0
    6.7340   -0.8100   24.3340 C   0  0  0  0  0  0  0  0  0  0  0  0
    7.5720   -1.0860   23.0620 C   0  0  1  0  0  0  0  0  0  0  0  0
    7.2590   -2.4710   22.4340 C   0  0  0  0  0  0  0  0  0  0  0  0
    6.3330   -2.2120   21.2350 C   0  0  0  0  0  0  0  0  0  0  0  0
    6.4480   -0.7820   20.9980 N   0  0  0  0  0  0  0  0  0  0  0  0
    5.8510   -0.1480   19.8730 C   0  0  0  0  0  0  0  0  0  0  0  0
    6.2600   -0.4570   18.6000 C   0  0  0  0  0  0  0  0  0  0  0  0
    5.7720    0.1140   17.4690 N   0  0  0  0  0  0  0  0  0  0  0  0
    4.8090    0.9950   17.6110 C   0  0  0  0  0  0  0  0  0  0  0  0
    4.2410    1.3660   18.8610 C   0  0  0  0  0  0  0  0  0  0  0  0
    3.1780    2.3100   18.9550 C   0  0  0  0  0  0  0  0  0  0  0  0
    2.6300    2.6220   20.1670 C   0  0  0  0  0  0  0  0  0  0  0  0
    3.1130    1.9980   21.3410 C   0  0  0  0  0  0  0  0  0  0  0  0
    4.1390    1.0930   21.2740 C   0  0  0  0  0  0  0  0  0  0  0  0
    4.7560    0.7670   20.0340 C   0  0  0  0  0  0  0  0  0  0  0  0
    4.5010    0.6240   22.1820 H   0  0  0  0  0  0  0  0  0  0  0  0
    2.6750    2.2510   22.3030 H   0  0  0  0  0  0  0  0  0  0  0  0
    1.8250    3.3510   20.2380 H   0  0  0  0  0  0  0  0  0  0  0  0
    2.8200    2.7770   18.0390 H   0  0  0  0  0  0  0  0  0  0  0  0
    4.4230    1.4560   16.7020 H   0  0  0  0  0  0  0  0  0  0  0  0
    7.0440   -1.1960   18.4330 H   0  0  0  0  0  0  0  0  0  0  0  0
    7.1180   -0.0870   21.9820 C   0  0  0  0  0  0  0  0  0  0  0  0
    7.2800    1.1130   21.9900 O   0  0  0  0  0  0  0  0  0  0  0  0
    6.6300   -2.7410   20.3330 H   0  0  0  0  0  0  0  0  0  0  0  0
    5.2900   -2.4890   21.4450 H   0  0  0  0  0  0  0  0  0  0  0  0
    6.7930   -3.1260   23.1720 H   0  0  0  0  0  0  0  0  0  0  0  0
    8.1950   -2.9470   22.1310 H   0  0  0  0  0  0  0  0  0  0  0  0
    9.0350   -0.9500   23.4300 C   0  0  0  0  0  0  0  0  0  0  0  0
    9.9780   -0.6160   22.4520 C   0  0  0  0  0  0  0  0  0  0  0  0
   11.3200   -0.5770   22.7890 C   0  0  0  0  0  0  0  0  0  0  0  0
   12.5410   -0.1380   21.6350 Cl  0  0  0  0  0  0  0  0  0  0  0  0
   11.7510   -0.8900   24.0740 C   0  0  0  0  0  0  0  0  0  0  0  0
   10.8270   -1.2560   25.0310 C   0  0  0  0  0  0  0  0  0  0  0  0
    9.4690   -1.2920   24.7190 C   0  0  0  0  0  0  0  0  0  0  0  0
    8.5090   -1.7650   25.7680 C   0  0  0  0  0  0  0  0  0  0  0  0
    8.8790   -2.2990   26.8050 O   0  0  0  0  0  0  0  0  0  0  0  0
   11.1370   -1.5360   26.0330 H   0  0  0  0  0  0  0  0  0  0  0  0
   12.8130   -0.8490   24.2820 H   0  0  0  0  0  0  0  0  0  0  0  0
    9.6630   -0.3740   21.4430 H   0  0  0  0  0  0  0  0  0  0  0  0
    6.7940    0.2690   24.5420 H   0  0  0  0  0  0  0  0  0  0  0  0
    5.6940   -1.1090   24.1600 H   0  0  0  0  0  0  0  0  0  0  0  0
    5.2670   -1.7040   26.2900 H   0  0  0  0  0  0  0  0  0  0  0  0
    6.5960   -2.3530   27.2870 H   0  0  0  0  0  0  0  0  0  0  0  0
    4.8440   -3.9730   24.9980 N   0  0  0  0  0  0  0  0  0  0  0  0
    7.6220   -4.8390   26.5200 H   0  0  0  0  0  0  0  0  0  0  0  0
    6.3310   -6.8570   25.0580 H   0  0  0  0  0  0  0  0  0  0  0  0
    3.2910   -6.5330   24.4580 H   0  0  0  0  0  0  0  0  0  0  0  0
    3.4860   -5.2060   23.2620 H   0  0  0  0  0  0  0  0  0  0  0  0
    4.5440   -6.6540   23.1940 H   0  0  0  0  0  0  0  0  0  0  0  0
  1  2  1  0  0  0  0
  1 54  1  0  0  0  0
  1 55  1  0  0  0  0
  1 56  1  0  0  0  0
  2  3  1  0  0  0  0
  2 51  1  0  0  0  0
  3  4  2  0  0  0  0
  3 53  1  0  0  0  0
  4  5  1  0  0  0  0
  4 52  1  0  0  0  0
  5  6  1  0  0  0  0
  5 51  2  0  0  0  0
  6  7  1  0  0  0  0
  6 49  1  0  0  0  0
  6 50  1  0  0  0  0
  7  8  1  0  0  0  0
  7 42  1  0  0  0  0
  8  9  1  0  0  0  0
  8 47  1  0  0  0  0
  8 48  1  0  0  0  0
  9 10  1  0  0  0  0
  9 29  1  6  0  0  0
  9 35  1  0  0  0  0
 10 11  1  0  0  0  0
 10 33  1  0  0  0  0
 10 34  1  0  0  0  0
 11 12  1  0  0  0  0
 11 31  1  0  0  0  0
 11 32  1  0  0  0  0
 12 13  1  0  0  0  0
 12 29  1  0  0  0  0
 13 14  2  0  0  0  0
 13 22  1  0  0  0  0
 14 15  1  0  0  0  0
 14 28  1  0  0  0  0
 15 16  2  0  0  0  0
 16 17  1  0  0  0  0
 16 27  1  0  0  0  0
 17 18  2  0  0  0  0
 17 22  1  0  0  0  0
 18 19  1  0  0  0  0
 18 26  1  0  0  0  0
 19 20  2  0  0  0  0
 19 25  1  0  0  0  0
 20 21  1  0  0  0  0
 20 24  1  0  0  0  0
 21 22  2  0  0  0  0
 21 23  1  0  0  0  0
 29 30  2  0  0  0  0
 35 36  2  0  0  0  0
 35 41  1  0  0  0  0
 36 37  1  0  0  0  0
 36 46  1  0  0  0  0
 37 38  1  0  0  0  0
 37 39  2  0  0  0  0
 39 40  1  0  0  0  0
 39 45  1  0  0  0  0
 40 41  2  0  0  0  0
 40 44  1  0  0  0  0
 41 42  1  0  0  0  0
 42 43  2  0  0  0  0
M  END
>  <MODEL>
       3

$$$$
best_conformers_63.pdb
 OpenBabel02042510453D

 56 61  0  0  1  0  0  0  0  0999 V2000
    3.6050    1.3760   28.3710 C   0  0  0  0  0  0  0  0  0  0  0  0
    4.6440    0.3700   28.2350 N   0  0  0  0  0  0  0  0  0  0  0  0
    5.5740    0.0580   29.1620 C   0  0  0  0  0  0  0  0  0  0  0  0
    6.3100   -0.9810   28.6450 C   0  0  0  0  0  0  0  0  0  0  0  0
    5.7710   -1.2050   27.3630 C   0  0  0  0  0  0  0  0  0  0  0  0
    6.2690   -2.2050   26.3490 C   0  0  0  0  0  0  0  0  0  0  0  0
    7.2520   -1.6850   25.4030 N   0  0  0  0  0  0  0  0  0  0  0  0
    6.7820   -0.8160   24.3420 C   0  0  0  0  0  0  0  0  0  0  0  0
    7.5860   -1.0760   23.0510 C   0  0  1  0  0  0  0  0  0  0  0  0
    7.2480   -2.4680   22.4490 C   0  0  0  0  0  0  0  0  0  0  0  0
    6.3500   -2.2130   21.2270 C   0  0  0  0  0  0  0  0  0  0  0  0
    6.4390   -0.7780   21.0040 N   0  0  0  0  0  0  0  0  0  0  0  0
    5.8480   -0.1480   19.8740 C   0  0  0  0  0  0  0  0  0  0  0  0
    6.2590   -0.4570   18.6010 C   0  0  0  0  0  0  0  0  0  0  0  0
    5.7710    0.1140   17.4700 N   0  0  0  0  0  0  0  0  0  0  0  0
    4.8080    0.9960   17.6110 C   0  0  0  0  0  0  0  0  0  0  0  0
    4.2400    1.3680   18.8600 C   0  0  0  0  0  0  0  0  0  0  0  0
    3.1780    2.3110   18.9550 C   0  0  0  0  0  0  0  0  0  0  0  0
    2.6300    2.6230   20.1660 C   0  0  0  0  0  0  0  0  0  0  0  0
    3.1130    1.9990   21.3410 C   0  0  0  0  0  0  0  0  0  0  0  0
    4.1390    1.0930   21.2730 C   0  0  0  0  0  0  0  0  0  0  0  0
    4.7540    0.7680   20.0330 C   0  0  0  0  0  0  0  0  0  0  0  0
    4.5000    0.6240   22.1820 H   0  0  0  0  0  0  0  0  0  0  0  0
    2.6750    2.2510   22.3030 H   0  0  0  0  0  0  0  0  0  0  0  0
    1.8250    3.3520   20.2380 H   0  0  0  0  0  0  0  0  0  0  0  0
    2.8190    2.7780   18.0390 H   0  0  0  0  0  0  0  0  0  0  0  0
    4.4220    1.4570   16.7020 H   0  0  0  0  0  0  0  0  0  0  0  0
    7.0450   -1.1940   18.4330 H   0  0  0  0  0  0  0  0  0  0  0  0
    7.1140   -0.0810   21.9810 C   0  0  0  0  0  0  0  0  0  0  0  0
    7.2730    1.1210   21.9900 O   0  0  0  0  0  0  0  0  0  0  0  0
    6.6970   -2.7230   20.3340 H   0  0  0  0  0  0  0  0  0  0  0  0
    5.3070   -2.5180   21.3940 H   0  0  0  0  0  0  0  0  0  0  0  0
    6.7550   -3.0960   23.1970 H   0  0  0  0  0  0  0  0  0  0  0  0
    8.1760   -2.9810   22.1790 H   0  0  0  0  0  0  0  0  0  0  0  0
    9.0610   -0.9420   23.3860 C   0  0  0  0  0  0  0  0  0  0  0  0
    9.9920   -0.6380   22.3850 C   0  0  0  0  0  0  0  0  0  0  0  0
   11.3390   -0.5910   22.7080 C   0  0  0  0  0  0  0  0  0  0  0  0
   12.5770   -0.2060   21.5510 Cl  0  0  0  0  0  0  0  0  0  0  0  0
   11.7830   -0.8570   23.9990 C   0  0  0  0  0  0  0  0  0  0  0  0
   10.8760   -1.1930   24.9820 C   0  0  0  0  0  0  0  0  0  0  0  0
    9.5170   -1.2530   24.6750 C   0  0  0  0  0  0  0  0  0  0  0  0
    8.5790   -1.7170   25.7420 C   0  0  0  0  0  0  0  0  0  0  0  0
    8.9750   -2.1180   26.8260 O   0  0  0  0  0  0  0  0  0  0  0  0
   11.2050   -1.4390   25.9870 H   0  0  0  0  0  0  0  0  0  0  0  0
   12.8490   -0.8060   24.1830 H   0  0  0  0  0  0  0  0  0  0  0  0
    9.6540   -0.4360   21.3740 H   0  0  0  0  0  0  0  0  0  0  0  0
    6.8820    0.2470   24.6050 H   0  0  0  0  0  0  0  0  0  0  0  0
    5.7240   -1.0540   24.1930 H   0  0  0  0  0  0  0  0  0  0  0  0
    5.4230   -2.5950   25.7680 H   0  0  0  0  0  0  0  0  0  0  0  0
    6.7550   -3.0370   26.8670 H   0  0  0  0  0  0  0  0  0  0  0  0
    4.7400   -0.3980   27.1360 N   0  0  0  0  0  0  0  0  0  0  0  0
    7.1010   -1.5600   29.0990 H   0  0  0  0  0  0  0  0  0  0  0  0
    5.6330    0.6180   30.0870 H   0  0  0  0  0  0  0  0  0  0  0  0
    3.2640    1.6450   27.3680 H   0  0  0  0  0  0  0  0  0  0  0  0
    4.0330    2.2510   28.8730 H   0  0  0  0  0  0  0  0  0  0  0  0
    2.7640    0.9960   28.9660 H   0  0  0  0  0  0  0  0  0  0  0  0
  1  2  1  0  0  0  0
  1 54  1  0  0  0  0
  1 55  1  0  0  0  0
  1 56  1  0  0  0  0
  2  3  1  0  0  0  0
  2 51  1  0  0  0  0
  3  4  2  0  0  0  0
  3 53  1  0  0  0  0
  4  5  1  0  0  0  0
  4 52  1  0  0  0  0
  5  6  1  0  0  0  0
  5 51  2  0  0  0  0
  6  7  1  0  0  0  0
  6 49  1  0  0  0  0
  6 50  1  0  0  0  0
  7  8  1  0  0  0  0
  7 42  1  0  0  0  0
  8  9  1  0  0  0  0
  8 47  1  0  0  0  0
  8 48  1  0  0  0  0
  9 10  1  0  0  0  0
  9 29  1  6  0  0  0
  9 35  1  0  0  0  0
 10 11  1  0  0  0  0
 10 33  1  0  0  0  0
 10 34  1  0  0  0  0
 11 12  1  0  0  0  0
 11 31  1  0  0  0  0
 11 32  1  0  0  0  0
 12 13  1  0  0  0  0
 12 29  1  0  0  0  0
 13 14  2  0  0  0  0
 13 22  1  0  0  0  0
 14 15  1  0  0  0  0
 14 28  1  0  0  0  0
 15 16  2  0  0  0  0
 16 17  1  0  0  0  0
 16 27  1  0  0  0  0
 17 18  2  0  0  0  0
 17 22  1  0  0  0  0
 18 19  1  0  0  0  0
 18 26  1  0  0  0  0
 19 20  2  0  0  0  0
 19 25  1  0  0  0  0
 20 21  1  0  0  0  0
 20 24  1  0  0  0  0
 21 22  2  0  0  0  0
 21 23  1  0  0  0  0
 29 30  2  0  0  0  0
 35 36  2  0  0  0  0
 35 41  1  0  0  0  0
 36 37  1  0  0  0  0
 36 46  1  0  0  0  0
 37 38  1  0  0  0  0
 37 39  2  0  0  0  0
 39 40  1  0  0  0  0
 39 45  1  0  0  0  0
 40 41  2  0  0  0  0
 40 44  1  0  0  0  0
 41 42  1  0  0  0  0
 42 43  2  0  0  0  0
M  END
>  <MODEL>
       4

$$$$
