best_conformers_0.pdb
 OpenBabel02042510453D

 63 69  0  0  1  0  0  0  0  0999 V2000
    3.6540   -4.0130   25.3320 O   0  0  0  0  0  0  0  0  0  0  0  0
    4.5620   -3.4770   24.7130 C   0  0  0  0  0  0  0  0  0  0  0  0
    5.0520   -2.0990   25.0420 C   0  0  0  0  0  0  0  0  0  0  0  0
    4.4930   -1.4590   26.1500 C   0  0  0  0  0  0  0  0  0  0  0  0
    4.8020   -0.1440   26.4360 C   0  0  0  0  0  0  0  0  0  0  0  0
    5.6700    0.5310   25.5820 C   0  0  0  0  0  0  0  0  0  0  0  0
    6.0320    2.2030   25.9050 Cl  0  0  0  0  0  0  0  0  0  0  0  0
    6.2430   -0.0910   24.4870 C   0  0  0  0  0  0  0  0  0  0  0  0
    5.9740   -1.4400   24.2200 C   0  0  0  0  0  0  0  0  0  0  0  0
    6.5640   -2.1210   22.9820 C   0  0  1  0  0  0  0  0  0  0  0  0
    6.4980   -3.6510   23.2180 C   0  0  0  0  0  0  0  0  0  0  0  0
    5.1750   -4.0710   23.6440 N   0  0  0  0  0  0  0  0  0  0  0  0
    4.6180   -5.2960   23.1100 C   0  0  0  0  0  0  0  0  0  0  0  0
    5.1030   -6.5390   23.8060 C   0  0  0  0  0  0  0  0  0  0  0  0
    4.5470   -7.1780   24.7750 N   0  0  0  0  0  0  0  0  0  0  0  0
    5.4020   -8.2260   25.1130 N   0  0  0  0  0  0  0  0  0  0  0  0
    6.3910   -8.1360   24.2980 C   0  0  0  0  0  0  0  0  0  0  0  0
    6.2830   -7.1040   23.4300 O   0  0  0  0  0  0  0  0  0  0  0  0
    7.2620   -8.7720   24.2230 H   0  0  0  0  0  0  0  0  0  0  0  0
    4.8490   -5.3390   22.0390 H   0  0  0  0  0  0  0  0  0  0  0  0
    3.5370   -5.2560   23.2450 H   0  0  0  0  0  0  0  0  0  0  0  0
    6.7200   -4.1840   22.2930 H   0  0  0  0  0  0  0  0  0  0  0  0
    7.2390   -3.9340   23.9810 H   0  0  0  0  0  0  0  0  0  0  0  0
    5.6950   -1.7440   21.7600 C   0  0  0  0  0  0  0  0  0  0  0  0
    4.5680   -2.1260   21.5310 O   0  0  0  0  0  0  0  0  0  0  0  0
    6.4010   -0.8700   20.9650 N   0  0  0  0  0  0  0  0  0  0  0  0
    5.8040   -0.2070   19.8580 C   0  0  0  0  0  0  0  0  0  0  0  0
    6.2550   -0.4580   18.5860 C   0  0  0  0  0  0  0  0  0  0  0  0
    5.7780    0.1320   17.4610 N   0  0  0  0  0  0  0  0  0  0  0  0
    4.8040    1.0010   17.6060 C   0  0  0  0  0  0  0  0  0  0  0  0
    4.2380    1.3640   18.8610 C   0  0  0  0  0  0  0  0  0  0  0  0
    3.1900    2.3230   18.9560 C   0  0  0  0  0  0  0  0  0  0  0  0
    2.6770    2.6690   20.1750 C   0  0  0  0  0  0  0  0  0  0  0  0
    3.1980    2.0840   21.3530 C   0  0  0  0  0  0  0  0  0  0  0  0
    4.2130    1.1610   21.2900 C   0  0  0  0  0  0  0  0  0  0  0  0
    4.7520    0.7570   20.0320 C   0  0  0  0  0  0  0  0  0  0  0  0
    4.6030    0.7240   22.2100 H   0  0  0  0  0  0  0  0  0  0  0  0
    2.7840    2.3680   22.3160 H   0  0  0  0  0  0  0  0  0  0  0  0
    1.8760    3.4020   20.2490 H   0  0  0  0  0  0  0  0  0  0  0  0
    2.8150    2.7780   18.0410 H   0  0  0  0  0  0  0  0  0  0  0  0
    4.4140    1.4630   16.6990 H   0  0  0  0  0  0  0  0  0  0  0  0
    7.0460   -1.1890   18.4260 H   0  0  0  0  0  0  0  0  0  0  0  0
    7.7570   -0.6140   21.4130 C   0  0  0  0  0  0  0  0  0  0  0  0
    7.9820   -1.5820   22.6000 C   0  0  2  0  0  0  0  0  0  0  0  0
    9.0670   -2.6360   22.2520 C   0  0  0  0  0  0  0  0  0  0  0  0
   10.3720   -2.0440   21.9980 N   0  0  0  0  0  0  0  0  0  0  0  0
   11.1960   -1.5820   22.9520 C   0  0  0  0  0  0  0  0  0  0  0  0
   10.8250   -1.7100   24.2400 N   0  0  0  0  0  0  0  0  0  0  0  0
   11.7080   -1.2210   25.1030 C   0  0  0  0  0  0  0  0  0  0  0  0
   12.8610   -0.6200   24.8120 N   0  0  0  0  0  0  0  0  0  0  0  0
   13.1140   -0.5550   23.4970 C   0  0  0  0  0  0  0  0  0  0  0  0
   12.3490   -1.0130   22.5220 N   0  0  0  0  0  0  0  0  0  0  0  0
   14.0550   -0.0690   23.2190 H   0  0  0  0  0  0  0  0  0  0  0  0
   11.4550   -1.3180   26.1600 H   0  0  0  0  0  0  0  0  0  0  0  0
   10.7480   -1.9870   21.0640 H   0  0  0  0  0  0  0  0  0  0  0  0
    9.1760   -3.3540   23.0740 H   0  0  0  0  0  0  0  0  0  0  0  0
    8.7960   -3.1740   21.3420 H   0  0  0  0  0  0  0  0  0  0  0  0
    8.4000   -1.0590   23.4670 H   0  0  0  0  0  0  0  0  0  0  0  0
    7.8840    0.4350   21.7160 H   0  0  0  0  0  0  0  0  0  0  0  0
    8.4590   -0.7880   20.5890 H   0  0  0  0  0  0  0  0  0  0  0  0
    6.8860    0.5020   23.8440 H   0  0  0  0  0  0  0  0  0  0  0  0
    4.3710    0.3700   27.2880 H   0  0  0  0  0  0  0  0  0  0  0  0
    3.7920   -2.0160   26.7610 H   0  0  0  0  0  0  0  0  0  0  0  0
  1  2  2  0  0  0  0
  2  3  1  0  0  0  0
  2 12  1  0  0  0  0
  3  4  2  0  0  0  0
  3  9  1  0  0  0  0
  4  5  1  0  0  0  0
  4 63  1  0  0  0  0
  5  6  2  0  0  0  0
  5 62  1  0  0  0  0
  6  7  1  0  0  0  0
  6  8  1  0  0  0  0
  8  9  2  0  0  0  0
  8 61  1  0  0  0  0
 10  9  1  1  0  0  0
 10 11  1  0  0  0  0
 10 24  1  0  0  0  0
 10 44  1  0  0  0  0
 11 12  1  0  0  0  0
 11 22  1  0  0  0  0
 11 23  1  0  0  0  0
 12 13  1  0  0  0  0
 13 14  1  0  0  0  0
 13 20  1  0  0  0  0
 13 21  1  0  0  0  0
 14 15  2  0  0  0  0
 14 18  1  0  0  0  0
 15 16  1  0  0  0  0
 16 17  2  0  0  0  0
 17 18  1  0  0  0  0
 17 19  1  0  0  0  0
 24 25  2  0  0  0  0
 24 26  1  0  0  0  0
 26 27  1  0  0  0  0
 26 43  1  0  0  0  0
 27 28  2  0  0  0  0
 27 36  1  0  0  0  0
 28 29  1  0  0  0  0
 28 42  1  0  0  0  0
 29 30  2  0  0  0  0
 30 31  1  0  0  0  0
 30 41  1  0  0  0  0
 31 32  2  0  0  0  0
 31 36  1  0  0  0  0
 32 33  1  0  0  0  0
 32 40  1  0  0  0  0
 33 34  2  0  0  0  0
 33 39  1  0  0  0  0
 34 35  1  0  0  0  0
 34 38  1  0  0  0  0
 35 36  2  0  0  0  0
 35 37  1  0  0  0  0
 43 44  1  0  0  0  0
 43 59  1  0  0  0  0
 43 60  1  0  0  0  0
 44 45  1  0  0  0  0
 44 58  1  1  0  0  0
 45 46  1  0  0  0  0
 45 56  1  0  0  0  0
 45 57  1  0  0  0  0
 46 47  1  0  0  0  0
 46 55  1  0  0  0  0
 47 48  2  0  0  0  0
 47 52  1  0  0  0  0
 48 49  1  0  0  0  0
 49 50  2  0  0  0  0
 49 54  1  0  0  0  0
 50 51  1  0  0  0  0
 51 52  2  0  0  0  0
 51 53  1  0  0  0  0
M  END
>  <MODEL>
       1

$$$$
best_conformers_0.pdb
 OpenBabel02042510453D

 63 69  0  0  1  0  0  0  0  0999 V2000
    3.6560   -3.9900   25.3500 O   0  0  0  0  0  0  0  0  0  0  0  0
    4.5640   -3.4610   24.7250 C   0  0  0  0  0  0  0  0  0  0  0  0
    5.0650   -2.0850   25.0500 C   0  0  0  0  0  0  0  0  0  0  0  0
    4.5150   -1.4400   26.1590 C   0  0  0  0  0  0  0  0  0  0  0  0
    4.8340   -0.1270   26.4410 C   0  0  0  0  0  0  0  0  0  0  0  0
    5.7010    0.5420   25.5820 C   0  0  0  0  0  0  0  0  0  0  0  0
    6.0750    2.2120   25.8990 Cl  0  0  0  0  0  0  0  0  0  0  0  0
    6.2650   -0.0860   24.4850 C   0  0  0  0  0  0  0  0  0  0  0  0
    5.9860   -1.4340   24.2210 C   0  0  0  0  0  0  0  0  0  0  0  0
    6.5660   -2.1210   22.9830 C   0  0  1  0  0  0  0  0  0  0  0  0
    6.4920   -3.6490   23.2210 C   0  0  0  0  0  0  0  0  0  0  0  0
    5.1690   -4.0600   23.6540 N   0  0  0  0  0  0  0  0  0  0  0  0
    4.6010   -5.2830   23.1250 C   0  0  0  0  0  0  0  0  0  0  0  0
    5.0810   -6.5280   23.8200 C   0  0  0  0  0  0  0  0  0  0  0  0
    4.5250   -7.1610   24.7930 N   0  0  0  0  0  0  0  0  0  0  0  0
    5.3740   -8.2150   25.1290 N   0  0  0  0  0  0  0  0  0  0  0  0
    6.3600   -8.1330   24.3100 C   0  0  0  0  0  0  0  0  0  0  0  0
    6.2550   -7.1010   23.4410 O   0  0  0  0  0  0  0  0  0  0  0  0
    7.2260   -8.7750   24.2320 H   0  0  0  0  0  0  0  0  0  0  0  0
    4.8270   -5.3290   22.0530 H   0  0  0  0  0  0  0  0  0  0  0  0
    3.5210   -5.2360   23.2650 H   0  0  0  0  0  0  0  0  0  0  0  0
    6.7060   -4.1860   22.2960 H   0  0  0  0  0  0  0  0  0  0  0  0
    7.2350   -3.9360   23.9810 H   0  0  0  0  0  0  0  0  0  0  0  0
    5.6940   -1.7410   21.7640 C   0  0  0  0  0  0  0  0  0  0  0  0
    4.5650   -2.1170   21.5390 O   0  0  0  0  0  0  0  0  0  0  0  0
    6.4010   -0.8700   20.9650 N   0  0  0  0  0  0  0  0  0  0  0  0
    5.8040   -0.2070   19.8580 C   0  0  0  0  0  0  0  0  0  0  0  0
    6.2550   -0.4580   18.5860 C   0  0  0  0  0  0  0  0  0  0  0  0
    5.7780    0.1320   17.4610 N   0  0  0  0  0  0  0  0  0  0  0  0
    4.8040    1.0010   17.6060 C   0  0  0  0  0  0  0  0  0  0  0  0
    4.2380    1.3640   18.8610 C   0  0  0  0  0  0  0  0  0  0  0  0
    3.1900    2.3230   18.9560 C   0  0  0  0  0  0  0  0  0  0  0  0
    2.6780    2.6700   20.1750 C   0  0  0  0  0  0  0  0  0  0  0  0
    3.1990    2.0850   21.3530 C   0  0  0  0  0  0  0  0  0  0  0  0
    4.2140    1.1620   21.2900 C   0  0  0  0  0  0  0  0  0  0  0  0
    4.7520    0.7570   20.0320 C   0  0  0  0  0  0  0  0  0  0  0  0
    4.6040    0.7250   22.2100 H   0  0  0  0  0  0  0  0  0  0  0  0
    2.7860    2.3690   22.3160 H   0  0  0  0  0  0  0  0  0  0  0  0
    1.8770    3.4020   20.2490 H   0  0  0  0  0  0  0  0  0  0  0  0
    2.8150    2.7770   18.0410 H   0  0  0  0  0  0  0  0  0  0  0  0
    4.4130    1.4630   16.6990 H   0  0  0  0  0  0  0  0  0  0  0  0
    7.0450   -1.1890   18.4250 H   0  0  0  0  0  0  0  0  0  0  0  0
    7.7610   -0.6230   21.4060 C   0  0  0  0  0  0  0  0  0  0  0  0
    7.9860   -1.5910   22.5930 C   0  0  2  0  0  0  0  0  0  0  0  0
    9.0620   -2.6520   22.2400 C   0  0  0  0  0  0  0  0  0  0  0  0
   10.3700   -2.0690   21.9780 N   0  0  0  0  0  0  0  0  0  0  0  0
   11.2020   -1.6120   22.9280 C   0  0  0  0  0  0  0  0  0  0  0  0
   12.3570   -1.0520   22.4920 N   0  0  0  0  0  0  0  0  0  0  0  0
   13.1310   -0.5990   23.4620 C   0  0  0  0  0  0  0  0  0  0  0  0
   12.8840   -0.6610   24.7780 N   0  0  0  0  0  0  0  0  0  0  0  0
   11.7280   -1.2540   25.0760 C   0  0  0  0  0  0  0  0  0  0  0  0
   10.8370   -1.7370   24.2180 N   0  0  0  0  0  0  0  0  0  0  0  0
   11.4790   -1.3480   26.1340 H   0  0  0  0  0  0  0  0  0  0  0  0
   14.0740   -0.1210   23.1790 H   0  0  0  0  0  0  0  0  0  0  0  0
   10.7410   -2.0150   21.0420 H   0  0  0  0  0  0  0  0  0  0  0  0
    8.7830   -3.1890   21.3330 H   0  0  0  0  0  0  0  0  0  0  0  0
    9.1710   -3.3700   23.0620 H   0  0  0  0  0  0  0  0  0  0  0  0
    8.4120   -1.0690   23.4570 H   0  0  0  0  0  0  0  0  0  0  0  0
    7.8960    0.4260   21.7070 H   0  0  0  0  0  0  0  0  0  0  0  0
    8.4580   -0.8020   20.5790 H   0  0  0  0  0  0  0  0  0  0  0  0
    6.9080    0.5020   23.8380 H   0  0  0  0  0  0  0  0  0  0  0  0
    4.4100    0.3920   27.2940 H   0  0  0  0  0  0  0  0  0  0  0  0
    3.8130   -1.9910   26.7750 H   0  0  0  0  0  0  0  0  0  0  0  0
  1  2  2  0  0  0  0
  2  3  1  0  0  0  0
  2 12  1  0  0  0  0
  3  4  2  0  0  0  0
  3  9  1  0  0  0  0
  4  5  1  0  0  0  0
  4 63  1  0  0  0  0
  5  6  2  0  0  0  0
  5 62  1  0  0  0  0
  6  7  1  0  0  0  0
  6  8  1  0  0  0  0
  8  9  2  0  0  0  0
  8 61  1  0  0  0  0
 10  9  1  1  0  0  0
 10 11  1  0  0  0  0
 10 24  1  0  0  0  0
 10 44  1  0  0  0  0
 11 12  1  0  0  0  0
 11 22  1  0  0  0  0
 11 23  1  0  0  0  0
 12 13  1  0  0  0  0
 13 14  1  0  0  0  0
 13 20  1  0  0  0  0
 13 21  1  0  0  0  0
 14 15  2  0  0  0  0
 14 18  1  0  0  0  0
 15 16  1  0  0  0  0
 16 17  2  0  0  0  0
 17 18  1  0  0  0  0
 17 19  1  0  0  0  0
 24 25  2  0  0  0  0
 24 26  1  0  0  0  0
 26 27  1  0  0  0  0
 26 43  1  0  0  0  0
 27 28  2  0  0  0  0
 27 36  1  0  0  0  0
 28 29  1  0  0  0  0
 28 42  1  0  0  0  0
 29 30  2  0  0  0  0
 30 31  1  0  0  0  0
 30 41  1  0  0  0  0
 31 32  2  0  0  0  0
 31 36  1  0  0  0  0
 32 33  1  0  0  0  0
 32 40  1  0  0  0  0
 33 34  2  0  0  0  0
 33 39  1  0  0  0  0
 34 35  1  0  0  0  0
 34 38  1  0  0  0  0
 35 36  2  0  0  0  0
 35 37  1  0  0  0  0
 43 44  1  0  0  0  0
 43 59  1  0  0  0  0
 43 60  1  0  0  0  0
 44 45  1  0  0  0  0
 44 58  1  1  0  0  0
 45 46  1  0  0  0  0
 45 56  1  0  0  0  0
 45 57  1  0  0  0  0
 46 47  1  0  0  0  0
 46 55  1  0  0  0  0
 47 48  2  0  0  0  0
 47 52  1  0  0  0  0
 48 49  1  0  0  0  0
 49 50  2  0  0  0  0
 49 54  1  0  0  0  0
 50 51  1  0  0  0  0
 51 52  2  0  0  0  0
 51 53  1  0  0  0  0
M  END
>  <MODEL>
       2

$$$$
best_conformers_0.pdb
 OpenBabel02042510453D

 63 69  0  0  1  0  0  0  0  0999 V2000
    3.6710   -4.0460   25.3380 O   0  0  0  0  0  0  0  0  0  0  0  0
    4.5630   -3.4870   24.7160 C   0  0  0  0  0  0  0  0  0  0  0  0
    5.0430   -2.1040   25.0430 C   0  0  0  0  0  0  0  0  0  0  0  0
    4.4810   -1.4620   26.1480 C   0  0  0  0  0  0  0  0  0  0  0  0
    4.7860   -0.1470   26.4340 C   0  0  0  0  0  0  0  0  0  0  0  0
    5.6540    0.5310   25.5820 C   0  0  0  0  0  0  0  0  0  0  0  0
    6.0110    2.2050   25.9030 Cl  0  0  0  0  0  0  0  0  0  0  0  0
    6.2320   -0.0920   24.4880 C   0  0  0  0  0  0  0  0  0  0  0  0
    5.9660   -1.4420   24.2210 C   0  0  0  0  0  0  0  0  0  0  0  0
    6.5620   -2.1200   22.9850 C   0  0  1  0  0  0  0  0  0  0  0  0
    6.4960   -3.6500   23.2170 C   0  0  0  0  0  0  0  0  0  0  0  0
    5.1700   -4.0690   23.6380 N   0  0  0  0  0  0  0  0  0  0  0  0
    4.6180   -5.2990   23.1070 C   0  0  0  0  0  0  0  0  0  0  0  0
    5.1800   -6.5350   23.7530 C   0  0  0  0  0  0  0  0  0  0  0  0
    6.2550   -7.1670   23.4230 N   0  0  0  0  0  0  0  0  0  0  0  0
    6.3930   -8.2130   24.3380 N   0  0  0  0  0  0  0  0  0  0  0  0
    5.3830   -8.1180   25.1280 C   0  0  0  0  0  0  0  0  0  0  0  0
    4.5600   -7.0920   24.8200 O   0  0  0  0  0  0  0  0  0  0  0  0
    5.1250   -8.7350   25.9780 H   0  0  0  0  0  0  0  0  0  0  0  0
    4.8680   -5.3370   22.0420 H   0  0  0  0  0  0  0  0  0  0  0  0
    3.5330   -5.2720   23.2200 H   0  0  0  0  0  0  0  0  0  0  0  0
    7.2360   -3.9330   23.9820 H   0  0  0  0  0  0  0  0  0  0  0  0
    6.7290   -4.1820   22.2930 H   0  0  0  0  0  0  0  0  0  0  0  0
    5.6950   -1.7440   21.7610 C   0  0  0  0  0  0  0  0  0  0  0  0
    4.5690   -2.1280   21.5310 O   0  0  0  0  0  0  0  0  0  0  0  0
    6.4010   -0.8700   20.9660 N   0  0  0  0  0  0  0  0  0  0  0  0
    5.8040   -0.2070   19.8580 C   0  0  0  0  0  0  0  0  0  0  0  0
    6.2540   -0.4570   18.5860 C   0  0  0  0  0  0  0  0  0  0  0  0
    5.7770    0.1320   17.4600 N   0  0  0  0  0  0  0  0  0  0  0  0
    4.8030    1.0010   17.6050 C   0  0  0  0  0  0  0  0  0  0  0  0
    4.2380    1.3650   18.8600 C   0  0  0  0  0  0  0  0  0  0  0  0
    3.1890    2.3230   18.9550 C   0  0  0  0  0  0  0  0  0  0  0  0
    2.6770    2.6690   20.1750 C   0  0  0  0  0  0  0  0  0  0  0  0
    3.1980    2.0830   21.3520 C   0  0  0  0  0  0  0  0  0  0  0  0
    4.2120    1.1600   21.2900 C   0  0  0  0  0  0  0  0  0  0  0  0
    4.7510    0.7570   20.0310 C   0  0  0  0  0  0  0  0  0  0  0  0
    4.6030    0.7230   22.2090 H   0  0  0  0  0  0  0  0  0  0  0  0
    2.7840    2.3660   22.3160 H   0  0  0  0  0  0  0  0  0  0  0  0
    1.8760    3.4010   20.2500 H   0  0  0  0  0  0  0  0  0  0  0  0
    2.8130    2.7790   18.0410 H   0  0  0  0  0  0  0  0  0  0  0  0
    4.4130    1.4640   16.6980 H   0  0  0  0  0  0  0  0  0  0  0  0
    7.0450   -1.1890   18.4250 H   0  0  0  0  0  0  0  0  0  0  0  0
    7.7560   -0.6100   21.4170 C   0  0  0  0  0  0  0  0  0  0  0  0
    7.9800   -1.5780   22.6050 C   0  0  2  0  0  0  0  0  0  0  0  0
    9.0690   -2.6280   22.2580 C   0  0  0  0  0  0  0  0  0  0  0  0
   10.3730   -2.0320   22.0060 N   0  0  0  0  0  0  0  0  0  0  0  0
   11.1940   -1.5640   22.9610 C   0  0  0  0  0  0  0  0  0  0  0  0
   12.3460   -0.9900   22.5350 N   0  0  0  0  0  0  0  0  0  0  0  0
   13.1080   -0.5280   23.5110 C   0  0  0  0  0  0  0  0  0  0  0  0
   12.8530   -0.5930   24.8260 N   0  0  0  0  0  0  0  0  0  0  0  0
   11.7020   -1.1990   25.1130 C   0  0  0  0  0  0  0  0  0  0  0  0
   10.8220   -1.6920   24.2490 N   0  0  0  0  0  0  0  0  0  0  0  0
   11.4460   -1.2960   26.1700 H   0  0  0  0  0  0  0  0  0  0  0  0
   14.0460   -0.0390   23.2340 H   0  0  0  0  0  0  0  0  0  0  0  0
   10.7480   -1.9760   21.0710 H   0  0  0  0  0  0  0  0  0  0  0  0
    8.7990   -3.1670   21.3480 H   0  0  0  0  0  0  0  0  0  0  0  0
    9.1780   -3.3470   23.0780 H   0  0  0  0  0  0  0  0  0  0  0  0
    8.3960   -1.0530   23.4710 H   0  0  0  0  0  0  0  0  0  0  0  0
    7.8780    0.4400   21.7210 H   0  0  0  0  0  0  0  0  0  0  0  0
    8.4600   -0.7810   20.5950 H   0  0  0  0  0  0  0  0  0  0  0  0
    6.8750    0.5040   23.8470 H   0  0  0  0  0  0  0  0  0  0  0  0
    4.3520    0.3680   27.2840 H   0  0  0  0  0  0  0  0  0  0  0  0
    3.7800   -2.0190   26.7590 H   0  0  0  0  0  0  0  0  0  0  0  0
  1  2  2  0  0  0  0
  2  3  1  0  0  0  0
  2 12  1  0  0  0  0
  3  4  2  0  0  0  0
  3  9  1  0  0  0  0
  4  5  1  0  0  0  0
  4 63  1  0  0  0  0
  5  6  2  0  0  0  0
  5 62  1  0  0  0  0
  6  7  1  0  0  0  0
  6  8  1  0  0  0  0
  8  9  2  0  0  0  0
  8 61  1  0  0  0  0
 10  9  1  1  0  0  0
 10 11  1  0  0  0  0
 10 24  1  0  0  0  0
 10 44  1  0  0  0  0
 11 12  1  0  0  0  0
 11 22  1  0  0  0  0
 11 23  1  0  0  0  0
 12 13  1  0  0  0  0
 13 14  1  0  0  0  0
 13 20  1  0  0  0  0
 13 21  1  0  0  0  0
 14 15  2  0  0  0  0
 14 18  1  0  0  0  0
 15 16  1  0  0  0  0
 16 17  2  0  0  0  0
 17 18  1  0  0  0  0
 17 19  1  0  0  0  0
 24 25  2  0  0  0  0
 24 26  1  0  0  0  0
 26 27  1  0  0  0  0
 26 43  1  0  0  0  0
 27 28  2  0  0  0  0
 27 36  1  0  0  0  0
 28 29  1  0  0  0  0
 28 42  1  0  0  0  0
 29 30  2  0  0  0  0
 30 31  1  0  0  0  0
 30 41  1  0  0  0  0
 31 32  2  0  0  0  0
 31 36  1  0  0  0  0
 32 33  1  0  0  0  0
 32 40  1  0  0  0  0
 33 34  2  0  0  0  0
 33 39  1  0  0  0  0
 34 35  1  0  0  0  0
 34 38  1  0  0  0  0
 35 36  2  0  0  0  0
 35 37  1  0  0  0  0
 43 44  1  0  0  0  0
 43 59  1  0  0  0  0
 43 60  1  0  0  0  0
 44 45  1  0  0  0  0
 44 58  1  1  0  0  0
 45 46  1  0  0  0  0
 45 56  1  0  0  0  0
 45 57  1  0  0  0  0
 46 47  1  0  0  0  0
 46 55  1  0  0  0  0
 47 48  2  0  0  0  0
 47 52  1  0  0  0  0
 48 49  1  0  0  0  0
 49 50  2  0  0  0  0
 49 54  1  0  0  0  0
 50 51  1  0  0  0  0
 51 52  2  0  0  0  0
 51 53  1  0  0  0  0
M  END
>  <MODEL>
       3

$$$$
best_conformers_0.pdb
 OpenBabel02042510453D

 63 69  0  0  1  0  0  0  0  0999 V2000
    3.6670   -4.0240   25.3540 O   0  0  0  0  0  0  0  0  0  0  0  0
    4.5590   -3.4740   24.7250 C   0  0  0  0  0  0  0  0  0  0  0  0
    5.0540   -2.0940   25.0490 C   0  0  0  0  0  0  0  0  0  0  0  0
    4.5040   -1.4480   26.1570 C   0  0  0  0  0  0  0  0  0  0  0  0
    4.8220   -0.1340   26.4410 C   0  0  0  0  0  0  0  0  0  0  0  0
    5.6910    0.5350   25.5830 C   0  0  0  0  0  0  0  0  0  0  0  0
    6.0650    2.2060   25.9020 Cl  0  0  0  0  0  0  0  0  0  0  0  0
    6.2570   -0.0930   24.4870 C   0  0  0  0  0  0  0  0  0  0  0  0
    5.9770   -1.4410   24.2220 C   0  0  0  0  0  0  0  0  0  0  0  0
    6.5610   -2.1250   22.9830 C   0  0  1  0  0  0  0  0  0  0  0  0
    6.4830   -3.6540   23.2160 C   0  0  0  0  0  0  0  0  0  0  0  0
    5.1560   -4.0610   23.6440 N   0  0  0  0  0  0  0  0  0  0  0  0
    4.5900   -5.2860   23.1170 C   0  0  0  0  0  0  0  0  0  0  0  0
    5.1450   -6.5270   23.7560 C   0  0  0  0  0  0  0  0  0  0  0  0
    6.2110   -7.1690   23.4170 N   0  0  0  0  0  0  0  0  0  0  0  0
    6.3480   -8.2170   24.3300 N   0  0  0  0  0  0  0  0  0  0  0  0
    5.3460   -8.1130   25.1290 C   0  0  0  0  0  0  0  0  0  0  0  0
    4.5300   -7.0790   24.8290 O   0  0  0  0  0  0  0  0  0  0  0  0
    5.0900   -8.7280   25.9810 H   0  0  0  0  0  0  0  0  0  0  0  0
    3.5060   -5.2500   23.2380 H   0  0  0  0  0  0  0  0  0  0  0  0
    4.8310   -5.3240   22.0500 H   0  0  0  0  0  0  0  0  0  0  0  0
    7.2250   -3.9430   23.9770 H   0  0  0  0  0  0  0  0  0  0  0  0
    6.7060   -4.1880   22.2910 H   0  0  0  0  0  0  0  0  0  0  0  0
    5.6910   -1.7420   21.7630 C   0  0  0  0  0  0  0  0  0  0  0  0
    4.5620   -2.1180   21.5380 O   0  0  0  0  0  0  0  0  0  0  0  0
    6.4000   -0.8710   20.9650 N   0  0  0  0  0  0  0  0  0  0  0  0
    5.8040   -0.2070   19.8580 C   0  0  0  0  0  0  0  0  0  0  0  0
    6.2540   -0.4580   18.5860 C   0  0  0  0  0  0  0  0  0  0  0  0
    5.7770    0.1320   17.4600 N   0  0  0  0  0  0  0  0  0  0  0  0
    4.8030    1.0010   17.6050 C   0  0  0  0  0  0  0  0  0  0  0  0
    4.2380    1.3650   18.8600 C   0  0  0  0  0  0  0  0  0  0  0  0
    3.1900    2.3240   18.9550 C   0  0  0  0  0  0  0  0  0  0  0  0
    2.6770    2.6700   20.1750 C   0  0  0  0  0  0  0  0  0  0  0  0
    3.1990    2.0840   21.3520 C   0  0  0  0  0  0  0  0  0  0  0  0
    4.2130    1.1620   21.2890 C   0  0  0  0  0  0  0  0  0  0  0  0
    4.7520    0.7580   20.0310 C   0  0  0  0  0  0  0  0  0  0  0  0
    4.6040    0.7240   22.2080 H   0  0  0  0  0  0  0  0  0  0  0  0
    2.7860    2.3680   22.3160 H   0  0  0  0  0  0  0  0  0  0  0  0
    1.8760    3.4020   20.2490 H   0  0  0  0  0  0  0  0  0  0  0  0
    2.8130    2.7780   18.0410 H   0  0  0  0  0  0  0  0  0  0  0  0
    4.4130    1.4640   16.6980 H   0  0  0  0  0  0  0  0  0  0  0  0
    7.0440   -1.1890   18.4250 H   0  0  0  0  0  0  0  0  0  0  0  0
    7.7590   -0.6250   21.4080 C   0  0  0  0  0  0  0  0  0  0  0  0
    7.9820   -1.5950   22.5950 C   0  0  2  0  0  0  0  0  0  0  0  0
    9.0590   -2.6550   22.2420 C   0  0  0  0  0  0  0  0  0  0  0  0
   10.3680   -2.0710   21.9830 N   0  0  0  0  0  0  0  0  0  0  0  0
   11.1990   -1.6130   22.9330 C   0  0  0  0  0  0  0  0  0  0  0  0
   10.8320   -1.7380   24.2230 N   0  0  0  0  0  0  0  0  0  0  0  0
   11.7220   -1.2550   25.0830 C   0  0  0  0  0  0  0  0  0  0  0  0
   12.8780   -0.6620   24.7890 N   0  0  0  0  0  0  0  0  0  0  0  0
   13.1260   -0.5980   23.4730 C   0  0  0  0  0  0  0  0  0  0  0  0
   12.3540   -1.0510   22.5010 N   0  0  0  0  0  0  0  0  0  0  0  0
   14.0690   -0.1190   23.1920 H   0  0  0  0  0  0  0  0  0  0  0  0
   11.4710   -1.3500   26.1410 H   0  0  0  0  0  0  0  0  0  0  0  0
   10.7370   -2.0180   21.0460 H   0  0  0  0  0  0  0  0  0  0  0  0
    8.7790   -3.1910   21.3340 H   0  0  0  0  0  0  0  0  0  0  0  0
    9.1660   -3.3750   23.0610 H   0  0  0  0  0  0  0  0  0  0  0  0
    8.4080   -1.0740   23.4580 H   0  0  0  0  0  0  0  0  0  0  0  0
    7.8940    0.4240   21.7110 H   0  0  0  0  0  0  0  0  0  0  0  0
    8.4570   -0.8030   20.5820 H   0  0  0  0  0  0  0  0  0  0  0  0
    6.9010    0.4970   23.8410 H   0  0  0  0  0  0  0  0  0  0  0  0
    4.3970    0.3840   27.2930 H   0  0  0  0  0  0  0  0  0  0  0  0
    3.8020   -1.9980   26.7730 H   0  0  0  0  0  0  0  0  0  0  0  0
  1  2  2  0  0  0  0
  2  3  1  0  0  0  0
  2 12  1  0  0  0  0
  3  4  2  0  0  0  0
  3  9  1  0  0  0  0
  4  5  1  0  0  0  0
  4 63  1  0  0  0  0
  5  6  2  0  0  0  0
  5 62  1  0  0  0  0
  6  7  1  0  0  0  0
  6  8  1  0  0  0  0
  8  9  2  0  0  0  0
  8 61  1  0  0  0  0
 10  9  1  1  0  0  0
 10 11  1  0  0  0  0
 10 24  1  0  0  0  0
 10 44  1  0  0  0  0
 11 12  1  0  0  0  0
 11 22  1  0  0  0  0
 11 23  1  0  0  0  0
 12 13  1  0  0  0  0
 13 14  1  0  0  0  0
 13 20  1  0  0  0  0
 13 21  1  0  0  0  0
 14 15  2  0  0  0  0
 14 18  1  0  0  0  0
 15 16  1  0  0  0  0
 16 17  2  0  0  0  0
 17 18  1  0  0  0  0
 17 19  1  0  0  0  0
 24 25  2  0  0  0  0
 24 26  1  0  0  0  0
 26 27  1  0  0  0  0
 26 43  1  0  0  0  0
 27 28  2  0  0  0  0
 27 36  1  0  0  0  0
 28 29  1  0  0  0  0
 28 42  1  0  0  0  0
 29 30  2  0  0  0  0
 30 31  1  0  0  0  0
 30 41  1  0  0  0  0
 31 32  2  0  0  0  0
 31 36  1  0  0  0  0
 32 33  1  0  0  0  0
 32 40  1  0  0  0  0
 33 34  2  0  0  0  0
 33 39  1  0  0  0  0
 34 35  1  0  0  0  0
 34 38  1  0  0  0  0
 35 36  2  0  0  0  0
 35 37  1  0  0  0  0
 43 44  1  0  0  0  0
 43 59  1  0  0  0  0
 43 60  1  0  0  0  0
 44 45  1  0  0  0  0
 44 58  1  1  0  0  0
 45 46  1  0  0  0  0
 45 56  1  0  0  0  0
 45 57  1  0  0  0  0
 46 47  1  0  0  0  0
 46 55  1  0  0  0  0
 47 48  2  0  0  0  0
 47 52  1  0  0  0  0
 48 49  1  0  0  0  0
 49 50  2  0  0  0  0
 49 54  1  0  0  0  0
 50 51  1  0  0  0  0
 51 52  2  0  0  0  0
 51 53  1  0  0  0  0
M  END
>  <MODEL>
       4

$$$$
best_conformers_0.pdb
 OpenBabel02042510453D

 63 69  0  0  1  0  0  0  0  0999 V2000
    8.5800   -2.0460   26.9500 O   0  0  0  0  0  0  0  0  0  0  0  0
    8.2460   -1.5710   25.8750 C   0  0  0  0  0  0  0  0  0  0  0  0
    9.2500   -1.0970   24.8840 C   0  0  0  0  0  0  0  0  0  0  0  0
   10.5650   -0.9600   25.3170 C   0  0  0  0  0  0  0  0  0  0  0  0
   11.5600   -0.6350   24.4120 C   0  0  0  0  0  0  0  0  0  0  0  0
   11.2230   -0.4650   23.0670 C   0  0  0  0  0  0  0  0  0  0  0  0
   12.4860   -0.0910   21.9260 Cl  0  0  0  0  0  0  0  0  0  0  0  0
    9.9150   -0.5900   22.6290 C   0  0  0  0  0  0  0  0  0  0  0  0
    8.9020   -0.8920   23.5470 C   0  0  0  0  0  0  0  0  0  0  0  0
    7.4780   -1.1050   23.0780 C   0  0  1  0  0  0  0  0  0  0  0  0
    6.5370   -0.8090   24.2710 C   0  0  0  0  0  0  0  0  0  0  0  0
    6.9400   -1.5000   25.4810 N   0  0  0  0  0  0  0  0  0  0  0  0
    5.9370   -2.0090   26.3950 C   0  0  0  0  0  0  0  0  0  0  0  0
    5.4530   -0.9520   27.3310 C   0  0  0  0  0  0  0  0  0  0  0  0
    4.5460   -0.0640   27.1000 N   0  0  0  0  0  0  0  0  0  0  0  0
    4.4350    0.6920   28.2630 N   0  0  0  0  0  0  0  0  0  0  0  0
    5.2900    0.1990   29.0860 C   0  0  0  0  0  0  0  0  0  0  0  0
    5.9820   -0.8440   28.5730 O   0  0  0  0  0  0  0  0  0  0  0  0
    5.5070    0.5220   30.0940 H   0  0  0  0  0  0  0  0  0  0  0  0
    5.0810   -2.3680   25.8100 H   0  0  0  0  0  0  0  0  0  0  0  0
    6.3920   -2.8280   26.9550 H   0  0  0  0  0  0  0  0  0  0  0  0
    6.5480    0.2800   24.4220 H   0  0  0  0  0  0  0  0  0  0  0  0
    5.5110   -1.1040   24.0130 H   0  0  0  0  0  0  0  0  0  0  0  0
    7.0860   -0.1230   21.9660 C   0  0  0  0  0  0  0  0  0  0  0  0
    7.2710    1.0770   21.9500 O   0  0  0  0  0  0  0  0  0  0  0  0
    6.4310   -0.8150   20.9770 N   0  0  0  0  0  0  0  0  0  0  0  0
    5.8330   -0.1700   19.8700 C   0  0  0  0  0  0  0  0  0  0  0  0
    6.2670   -0.4660   18.6010 C   0  0  0  0  0  0  0  0  0  0  0  0
    5.7910    0.1110   17.4710 N   0  0  0  0  0  0  0  0  0  0  0  0
    4.8230    0.9860   17.6150 C   0  0  0  0  0  0  0  0  0  0  0  0
    4.2550    1.3550   18.8690 C   0  0  0  0  0  0  0  0  0  0  0  0
    3.1950    2.2980   18.9540 C   0  0  0  0  0  0  0  0  0  0  0  0
    2.6380    2.6130   20.1620 C   0  0  0  0  0  0  0  0  0  0  0  0
    3.1130    1.9970   21.3420 C   0  0  0  0  0  0  0  0  0  0  0  0
    4.1410    1.0900   21.2890 C   0  0  0  0  0  0  0  0  0  0  0  0
    4.7560    0.7580   20.0440 C   0  0  0  0  0  0  0  0  0  0  0  0
    4.4920    0.6310   22.2090 H   0  0  0  0  0  0  0  0  0  0  0  0
    2.6640    2.2500   22.2980 H   0  0  0  0  0  0  0  0  0  0  0  0
    1.8340    3.3420   20.2250 H   0  0  0  0  0  0  0  0  0  0  0  0
    2.8420    2.7620   18.0370 H   0  0  0  0  0  0  0  0  0  0  0  0
    4.4290    1.4460   16.7090 H   0  0  0  0  0  0  0  0  0  0  0  0
    7.0630   -1.1960   18.4590 H   0  0  0  0  0  0  0  0  0  0  0  0
    6.2700   -2.2280   21.2500 C   0  0  0  0  0  0  0  0  0  0  0  0
    7.2590   -2.4990   22.3910 C   0  0  2  0  0  0  0  0  0  0  0  0
    6.8250   -3.6360   23.3160 C   0  0  0  0  0  0  0  0  0  0  0  0
    6.7420   -4.9080   22.6170 N   0  0  0  0  0  0  0  0  0  0  0  0
    6.5070   -6.0500   23.2860 C   0  0  0  0  0  0  0  0  0  0  0  0
    5.9830   -5.9940   24.5250 N   0  0  0  0  0  0  0  0  0  0  0  0
    5.7650   -7.1790   25.0820 C   0  0  0  0  0  0  0  0  0  0  0  0
    6.0230   -8.3730   24.5520 N   0  0  0  0  0  0  0  0  0  0  0  0
    6.5440   -8.2840   23.3170 C   0  0  0  0  0  0  0  0  0  0  0  0
    6.8120   -7.1880   22.6330 N   0  0  0  0  0  0  0  0  0  0  0  0
    6.7350   -9.2060   22.7770 H   0  0  0  0  0  0  0  0  0  0  0  0
    5.3180   -7.1690   26.0800 H   0  0  0  0  0  0  0  0  0  0  0  0
    7.1750   -5.0400   21.7170 H   0  0  0  0  0  0  0  0  0  0  0  0
    5.8460   -3.4380   23.7610 H   0  0  0  0  0  0  0  0  0  0  0  0
    7.5210   -3.7180   24.1570 H   0  0  0  0  0  0  0  0  0  0  0  0
    8.2290   -2.7840   21.9580 H   0  0  0  0  0  0  0  0  0  0  0  0
    5.2400   -2.4500   21.5570 H   0  0  0  0  0  0  0  0  0  0  0  0
    6.4680   -2.7970   20.3440 H   0  0  0  0  0  0  0  0  0  0  0  0
    9.6820   -0.4530   21.5770 H   0  0  0  0  0  0  0  0  0  0  0  0
   12.5930   -0.5460   24.7260 H   0  0  0  0  0  0  0  0  0  0  0  0
   10.7650   -1.1340   26.3720 H   0  0  0  0  0  0  0  0  0  0  0  0
  1  2  2  0  0  0  0
  2  3  1  0  0  0  0
  2 12  1  0  0  0  0
  3  4  2  0  0  0  0
  3  9  1  0  0  0  0
  4  5  1  0  0  0  0
  4 63  1  0  0  0  0
  5  6  2  0  0  0  0
  5 62  1  0  0  0  0
  6  7  1  0  0  0  0
  6  8  1  0  0  0  0
  8  9  2  0  0  0  0
  8 61  1  0  0  0  0
 10  9  1  1  0  0  0
 10 11  1  0  0  0  0
 10 24  1  0  0  0  0
 10 44  1  0  0  0  0
 11 12  1  0  0  0  0
 11 22  1  0  0  0  0
 11 23  1  0  0  0  0
 12 13  1  0  0  0  0
 13 14  1  0  0  0  0
 13 20  1  0  0  0  0
 13 21  1  0  0  0  0
 14 15  2  0  0  0  0
 14 18  1  0  0  0  0
 15 16  1  0  0  0  0
 16 17  2  0  0  0  0
 17 18  1  0  0  0  0
 17 19  1  0  0  0  0
 24 25  2  0  0  0  0
 24 26  1  0  0  0  0
 26 27  1  0  0  0  0
 26 43  1  0  0  0  0
 27 28  2  0  0  0  0
 27 36  1  0  0  0  0
 28 29  1  0  0  0  0
 28 42  1  0  0  0  0
 29 30  2  0  0  0  0
 30 31  1  0  0  0  0
 30 41  1  0  0  0  0
 31 32  2  0  0  0  0
 31 36  1  0  0  0  0
 32 33  1  0  0  0  0
 32 40  1  0  0  0  0
 33 34  2  0  0  0  0
 33 39  1  0  0  0  0
 34 35  1  0  0  0  0
 34 38  1  0  0  0  0
 35 36  2  0  0  0  0
 35 37  1  0  0  0  0
 43 44  1  0  0  0  0
 43 59  1  0  0  0  0
 43 60  1  0  0  0  0
 44 45  1  0  0  0  0
 44 58  1  6  0  0  0
 45 46  1  0  0  0  0
 45 56  1  0  0  0  0
 45 57  1  0  0  0  0
 46 47  1  0  0  0  0
 46 55  1  0  0  0  0
 47 48  2  0  0  0  0
 47 52  1  0  0  0  0
 48 49  1  0  0  0  0
 49 50  2  0  0  0  0
 49 54  1  0  0  0  0
 50 51  1  0  0  0  0
 51 52  2  0  0  0  0
 51 53  1  0  0  0  0
M  END
>  <MODEL>
       5

$$$$
best_conformers_0.pdb
 OpenBabel02042510453D

 63 69  0  0  1  0  0  0  0  0999 V2000
    8.5870   -2.0330   26.9460 O   0  0  0  0  0  0  0  0  0  0  0  0
    8.2520   -1.5590   25.8730 C   0  0  0  0  0  0  0  0  0  0  0  0
    9.2560   -1.0880   24.8790 C   0  0  0  0  0  0  0  0  0  0  0  0
   10.5720   -0.9540   25.3100 C   0  0  0  0  0  0  0  0  0  0  0  0
   11.5660   -0.6320   24.4040 C   0  0  0  0  0  0  0  0  0  0  0  0
   11.2260   -0.4640   23.0610 C   0  0  0  0  0  0  0  0  0  0  0  0
   12.4880   -0.0940   21.9170 Cl  0  0  0  0  0  0  0  0  0  0  0  0
    9.9180   -0.5890   22.6230 C   0  0  0  0  0  0  0  0  0  0  0  0
    8.9060   -0.8900   23.5420 C   0  0  0  0  0  0  0  0  0  0  0  0
    7.4820   -1.1010   23.0770 C   0  0  1  0  0  0  0  0  0  0  0  0
    6.5430   -0.8000   24.2710 C   0  0  0  0  0  0  0  0  0  0  0  0
    6.9470   -1.4890   25.4820 N   0  0  0  0  0  0  0  0  0  0  0  0
    5.9450   -1.9930   26.4000 C   0  0  0  0  0  0  0  0  0  0  0  0
    5.4580   -0.9290   27.3290 C   0  0  0  0  0  0  0  0  0  0  0  0
    4.5380   -0.0560   27.0980 N   0  0  0  0  0  0  0  0  0  0  0  0
    4.4340    0.7160   28.2530 N   0  0  0  0  0  0  0  0  0  0  0  0
    5.3050    0.2420   29.0720 C   0  0  0  0  0  0  0  0  0  0  0  0
    6.0020   -0.8000   28.5630 O   0  0  0  0  0  0  0  0  0  0  0  0
    5.5310    0.5800   30.0730 H   0  0  0  0  0  0  0  0  0  0  0  0
    6.3990   -2.8070   26.9660 H   0  0  0  0  0  0  0  0  0  0  0  0
    5.0890   -2.3560   25.8190 H   0  0  0  0  0  0  0  0  0  0  0  0
    6.5540    0.2880   24.4200 H   0  0  0  0  0  0  0  0  0  0  0  0
    5.5170   -1.0940   24.0180 H   0  0  0  0  0  0  0  0  0  0  0  0
    7.0890   -0.1200   21.9650 C   0  0  0  0  0  0  0  0  0  0  0  0
    7.2740    1.0800   21.9460 O   0  0  0  0  0  0  0  0  0  0  0  0
    6.4330   -0.8140   20.9770 N   0  0  0  0  0  0  0  0  0  0  0  0
    5.8340   -0.1700   19.8710 C   0  0  0  0  0  0  0  0  0  0  0  0
    6.2660   -0.4660   18.6010 C   0  0  0  0  0  0  0  0  0  0  0  0
    5.7910    0.1100   17.4710 N   0  0  0  0  0  0  0  0  0  0  0  0
    4.8220    0.9860   17.6150 C   0  0  0  0  0  0  0  0  0  0  0  0
    4.2550    1.3560   18.8680 C   0  0  0  0  0  0  0  0  0  0  0  0
    3.1960    2.2990   18.9540 C   0  0  0  0  0  0  0  0  0  0  0  0
    2.6400    2.6150   20.1620 C   0  0  0  0  0  0  0  0  0  0  0  0
    3.1140    1.9980   21.3420 C   0  0  0  0  0  0  0  0  0  0  0  0
    4.1420    1.0910   21.2890 C   0  0  0  0  0  0  0  0  0  0  0  0
    4.7570    0.7580   20.0440 C   0  0  0  0  0  0  0  0  0  0  0  0
    4.4930    0.6320   22.2080 H   0  0  0  0  0  0  0  0  0  0  0  0
    2.6660    2.2530   22.2990 H   0  0  0  0  0  0  0  0  0  0  0  0
    1.8360    3.3440   20.2250 H   0  0  0  0  0  0  0  0  0  0  0  0
    2.8430    2.7630   18.0370 H   0  0  0  0  0  0  0  0  0  0  0  0
    4.4290    1.4460   16.7080 H   0  0  0  0  0  0  0  0  0  0  0  0
    7.0630   -1.1960   18.4590 H   0  0  0  0  0  0  0  0  0  0  0  0
    6.2710   -2.2260   21.2540 C   0  0  0  0  0  0  0  0  0  0  0  0
    7.2600   -2.4960   22.3930 C   0  0  2  0  0  0  0  0  0  0  0  0
    6.8240   -3.6290   23.3210 C   0  0  0  0  0  0  0  0  0  0  0  0
    6.7360   -4.9030   22.6260 N   0  0  0  0  0  0  0  0  0  0  0  0
    6.4940   -6.0450   23.2950 C   0  0  0  0  0  0  0  0  0  0  0  0
    6.7960   -7.1840   22.6440 N   0  0  0  0  0  0  0  0  0  0  0  0
    6.5240   -8.2770   23.3310 C   0  0  0  0  0  0  0  0  0  0  0  0
    6.0010   -8.3620   24.5620 N   0  0  0  0  0  0  0  0  0  0  0  0
    5.7440   -7.1680   25.0900 C   0  0  0  0  0  0  0  0  0  0  0  0
    5.9740   -5.9810   24.5350 N   0  0  0  0  0  0  0  0  0  0  0  0
    5.3010   -7.1520   26.0880 H   0  0  0  0  0  0  0  0  0  0  0  0
    6.7060   -9.1990   22.7930 H   0  0  0  0  0  0  0  0  0  0  0  0
    7.1720   -5.0380   21.7270 H   0  0  0  0  0  0  0  0  0  0  0  0
    7.5200   -3.7130   24.1610 H   0  0  0  0  0  0  0  0  0  0  0  0
    5.8470   -3.4300   23.7670 H   0  0  0  0  0  0  0  0  0  0  0  0
    8.2290   -2.7830   21.9620 H   0  0  0  0  0  0  0  0  0  0  0  0
    6.4670   -2.7970   20.3490 H   0  0  0  0  0  0  0  0  0  0  0  0
    5.2400   -2.4470   21.5600 H   0  0  0  0  0  0  0  0  0  0  0  0
    9.6840   -0.4540   21.5720 H   0  0  0  0  0  0  0  0  0  0  0  0
   12.6000   -0.5430   24.7160 H   0  0  0  0  0  0  0  0  0  0  0  0
   10.7740   -1.1260   26.3640 H   0  0  0  0  0  0  0  0  0  0  0  0
  1  2  2  0  0  0  0
  2  3  1  0  0  0  0
  2 12  1  0  0  0  0
  3  4  2  0  0  0  0
  3  9  1  0  0  0  0
  4  5  1  0  0  0  0
  4 63  1  0  0  0  0
  5  6  2  0  0  0  0
  5 62  1  0  0  0  0
  6  7  1  0  0  0  0
  6  8  1  0  0  0  0
  8  9  2  0  0  0  0
  8 61  1  0  0  0  0
 10  9  1  1  0  0  0
 10 11  1  0  0  0  0
 10 24  1  0  0  0  0
 10 44  1  0  0  0  0
 11 12  1  0  0  0  0
 11 22  1  0  0  0  0
 11 23  1  0  0  0  0
 12 13  1  0  0  0  0
 13 14  1  0  0  0  0
 13 20  1  0  0  0  0
 13 21  1  0  0  0  0
 14 15  2  0  0  0  0
 14 18  1  0  0  0  0
 15 16  1  0  0  0  0
 16 17  2  0  0  0  0
 17 18  1  0  0  0  0
 17 19  1  0  0  0  0
 24 25  2  0  0  0  0
 24 26  1  0  0  0  0
 26 27  1  0  0  0  0
 26 43  1  0  0  0  0
 27 28  2  0  0  0  0
 27 36  1  0  0  0  0
 28 29  1  0  0  0  0
 28 42  1  0  0  0  0
 29 30  2  0  0  0  0
 30 31  1  0  0  0  0
 30 41  1  0  0  0  0
 31 32  2  0  0  0  0
 31 36  1  0  0  0  0
 32 33  1  0  0  0  0
 32 40  1  0  0  0  0
 33 34  2  0  0  0  0
 33 39  1  0  0  0  0
 34 35  1  0  0  0  0
 34 38  1  0  0  0  0
 35 36  2  0  0  0  0
 35 37  1  0  0  0  0
 43 44  1  0  0  0  0
 43 59  1  0  0  0  0
 43 60  1  0  0  0  0
 44 45  1  0  0  0  0
 44 58  1  6  0  0  0
 45 46  1  0  0  0  0
 45 56  1  0  0  0  0
 45 57  1  0  0  0  0
 46 47  1  0  0  0  0
 46 55  1  0  0  0  0
 47 48  2  0  0  0  0
 47 52  1  0  0  0  0
 48 49  1  0  0  0  0
 49 50  2  0  0  0  0
 49 54  1  0  0  0  0
 50 51  1  0  0  0  0
 51 52  2  0  0  0  0
 51 53  1  0  0  0  0
M  END
>  <MODEL>
       6

$$$$
best_conformers_0.pdb
 OpenBabel02042510453D

 63 69  0  0  1  0  0  0  0  0999 V2000
    8.5800   -2.0910   26.9270 O   0  0  0  0  0  0  0  0  0  0  0  0
    8.2390   -1.5770   25.8710 C   0  0  0  0  0  0  0  0  0  0  0  0
    9.2450   -1.0970   24.8820 C   0  0  0  0  0  0  0  0  0  0  0  0
   10.5610   -0.9660   25.3140 C   0  0  0  0  0  0  0  0  0  0  0  0
   11.5590   -0.6470   24.4130 C   0  0  0  0  0  0  0  0  0  0  0  0
   11.2230   -0.4770   23.0680 C   0  0  0  0  0  0  0  0  0  0  0  0
   12.4890   -0.1160   21.9270 Cl  0  0  0  0  0  0  0  0  0  0  0  0
    9.9150   -0.5990   22.6280 C   0  0  0  0  0  0  0  0  0  0  0  0
    8.8980   -0.8970   23.5440 C   0  0  0  0  0  0  0  0  0  0  0  0
    7.4730   -1.1040   23.0810 C   0  0  1  0  0  0  0  0  0  0  0  0
    6.5330   -0.7910   24.2740 C   0  0  0  0  0  0  0  0  0  0  0  0
    6.9310   -1.4660   25.4990 N   0  0  0  0  0  0  0  0  0  0  0  0
    5.9300   -1.9800   26.4170 C   0  0  0  0  0  0  0  0  0  0  0  0
    5.4960   -0.9550   27.4170 C   0  0  0  0  0  0  0  0  0  0  0  0
    5.8520   -0.8240   28.6470 N   0  0  0  0  0  0  0  0  0  0  0  0
    5.1690    0.2830   29.1430 N   0  0  0  0  0  0  0  0  0  0  0  0
    4.4620    0.7230   28.1680 C   0  0  0  0  0  0  0  0  0  0  0  0
    4.6070    0.0000   27.0320 O   0  0  0  0  0  0  0  0  0  0  0  0
    3.7930    1.5720   28.1520 H   0  0  0  0  0  0  0  0  0  0  0  0
    5.0610   -2.3320   25.8520 H   0  0  0  0  0  0  0  0  0  0  0  0
    6.3870   -2.8120   26.9590 H   0  0  0  0  0  0  0  0  0  0  0  0
    5.5080   -1.0820   24.0180 H   0  0  0  0  0  0  0  0  0  0  0  0
    6.5450    0.2990   24.4080 H   0  0  0  0  0  0  0  0  0  0  0  0
    7.0870   -0.1260   21.9640 C   0  0  0  0  0  0  0  0  0  0  0  0
    7.2790    1.0760   21.9430 O   0  0  0  0  0  0  0  0  0  0  0  0
    6.4320   -0.8160   20.9760 N   0  0  0  0  0  0  0  0  0  0  0  0
    5.8320   -0.1720   19.8690 C   0  0  0  0  0  0  0  0  0  0  0  0
    6.2640   -0.4660   18.6000 C   0  0  0  0  0  0  0  0  0  0  0  0
    5.7900    0.1120   17.4690 N   0  0  0  0  0  0  0  0  0  0  0  0
    4.8220    0.9870   17.6120 C   0  0  0  0  0  0  0  0  0  0  0  0
    4.2540    1.3560   18.8660 C   0  0  0  0  0  0  0  0  0  0  0  0
    3.1950    2.2990   18.9520 C   0  0  0  0  0  0  0  0  0  0  0  0
    2.6400    2.6130   20.1610 C   0  0  0  0  0  0  0  0  0  0  0  0
    3.1140    1.9970   21.3410 C   0  0  0  0  0  0  0  0  0  0  0  0
    4.1410    1.0900   21.2870 C   0  0  0  0  0  0  0  0  0  0  0  0
    4.7550    0.7570   20.0420 C   0  0  0  0  0  0  0  0  0  0  0  0
    4.4940    0.6300   22.2060 H   0  0  0  0  0  0  0  0  0  0  0  0
    2.6650    2.2500   22.2980 H   0  0  0  0  0  0  0  0  0  0  0  0
    1.8340    3.3410   20.2250 H   0  0  0  0  0  0  0  0  0  0  0  0
    2.8410    2.7630   18.0360 H   0  0  0  0  0  0  0  0  0  0  0  0
    4.4270    1.4490   16.7060 H   0  0  0  0  0  0  0  0  0  0  0  0
    7.0620   -1.1950   18.4590 H   0  0  0  0  0  0  0  0  0  0  0  0
    6.2640   -2.2280   21.2540 C   0  0  0  0  0  0  0  0  0  0  0  0
    7.2480   -2.4990   22.3960 C   0  0  2  0  0  0  0  0  0  0  0  0
    6.8080   -3.6330   23.3210 C   0  0  0  0  0  0  0  0  0  0  0  0
    6.7190   -4.9070   22.6250 N   0  0  0  0  0  0  0  0  0  0  0  0
    6.4750   -6.0470   23.2980 C   0  0  0  0  0  0  0  0  0  0  0  0
    6.7770   -7.1910   22.6520 N   0  0  0  0  0  0  0  0  0  0  0  0
    6.5040   -8.2790   23.3450 C   0  0  0  0  0  0  0  0  0  0  0  0
    5.9750   -8.3630   24.5720 N   0  0  0  0  0  0  0  0  0  0  0  0
    5.7180   -7.1670   25.0920 C   0  0  0  0  0  0  0  0  0  0  0  0
    5.9560   -5.9820   24.5380 N   0  0  0  0  0  0  0  0  0  0  0  0
    5.2770   -7.1480   26.0910 H   0  0  0  0  0  0  0  0  0  0  0  0
    6.6930   -9.2060   22.8100 H   0  0  0  0  0  0  0  0  0  0  0  0
    7.1610   -5.0330   21.7310 H   0  0  0  0  0  0  0  0  0  0  0  0
    7.5030   -3.7190   24.1600 H   0  0  0  0  0  0  0  0  0  0  0  0
    5.8300   -3.4290   23.7620 H   0  0  0  0  0  0  0  0  0  0  0  0
    8.2170   -2.7880   21.9650 H   0  0  0  0  0  0  0  0  0  0  0  0
    5.2310   -2.4470   21.5560 H   0  0  0  0  0  0  0  0  0  0  0  0
    6.4620   -2.8020   20.3520 H   0  0  0  0  0  0  0  0  0  0  0  0
    9.6850   -0.4660   21.5760 H   0  0  0  0  0  0  0  0  0  0  0  0
   12.5930   -0.5610   24.7300 H   0  0  0  0  0  0  0  0  0  0  0  0
   10.7630   -1.1380   26.3670 H   0  0  0  0  0  0  0  0  0  0  0  0
  1  2  2  0  0  0  0
  2  3  1  0  0  0  0
  2 12  1  0  0  0  0
  3  4  2  0  0  0  0
  3  9  1  0  0  0  0
  4  5  1  0  0  0  0
  4 63  1  0  0  0  0
  5  6  2  0  0  0  0
  5 62  1  0  0  0  0
  6  7  1  0  0  0  0
  6  8  1  0  0  0  0
  8  9  2  0  0  0  0
  8 61  1  0  0  0  0
 10  9  1  1  0  0  0
 10 11  1  0  0  0  0
 10 24  1  0  0  0  0
 10 44  1  0  0  0  0
 11 12  1  0  0  0  0
 11 22  1  0  0  0  0
 11 23  1  0  0  0  0
 12 13  1  0  0  0  0
 13 14  1  0  0  0  0
 13 20  1  0  0  0  0
 13 21  1  0  0  0  0
 14 15  2  0  0  0  0
 14 18  1  0  0  0  0
 15 16  1  0  0  0  0
 16 17  2  0  0  0  0
 17 18  1  0  0  0  0
 17 19  1  0  0  0  0
 24 25  2  0  0  0  0
 24 26  1  0  0  0  0
 26 27  1  0  0  0  0
 26 43  1  0  0  0  0
 27 28  2  0  0  0  0
 27 36  1  0  0  0  0
 28 29  1  0  0  0  0
 28 42  1  0  0  0  0
 29 30  2  0  0  0  0
 30 31  1  0  0  0  0
 30 41  1  0  0  0  0
 31 32  2  0  0  0  0
 31 36  1  0  0  0  0
 32 33  1  0  0  0  0
 32 40  1  0  0  0  0
 33 34  2  0  0  0  0
 33 39  1  0  0  0  0
 34 35  1  0  0  0  0
 34 38  1  0  0  0  0
 35 36  2  0  0  0  0
 35 37  1  0  0  0  0
 43 44  1  0  0  0  0
 43 59  1  0  0  0  0
 43 60  1  0  0  0  0
 44 45  1  0  0  0  0
 44 58  1  6  0  0  0
 45 46  1  0  0  0  0
 45 56  1  0  0  0  0
 45 57  1  0  0  0  0
 46 47  1  0  0  0  0
 46 55  1  0  0  0  0
 47 48  2  0  0  0  0
 47 52  1  0  0  0  0
 48 49  1  0  0  0  0
 49 50  2  0  0  0  0
 49 54  1  0  0  0  0
 50 51  1  0  0  0  0
 51 52  2  0  0  0  0
 51 53  1  0  0  0  0
M  END
>  <MODEL>
       7

$$$$
