best_conformers_11.pdb
 OpenBabel02042510453D

 54 57  0  0  1  0  0  0  0  0999 V2000
    4.1010    1.4570   25.3060 C   0  0  0  0  0  0  0  0  0  0  0  0
    5.4220    1.4340   24.8210 O   0  0  0  0  0  0  0  0  0  0  0  0
    5.8920    2.4740   24.0810 C   0  0  0  0  0  0  0  0  0  0  0  0
    5.1240    3.5970   23.7640 C   0  0  0  0  0  0  0  0  0  0  0  0
    5.6830    4.6150   22.9940 C   0  0  0  0  0  0  0  0  0  0  0  0
    7.0010    4.5220   22.5660 C   0  0  0  0  0  0  0  0  0  0  0  0
    7.7560    3.4030   22.9060 C   0  0  0  0  0  0  0  0  0  0  0  0
    7.2240    2.3610   23.6480 C   0  0  0  0  0  0  0  0  0  0  0  0
    8.0170    1.0940   23.9340 C   0  0  2  0  0  0  0  0  0  0  0  0
    9.5460    1.2700   23.9040 C   0  0  0  0  0  0  0  0  0  0  0  0
   10.2320    0.0100   24.4730 C   0  0  2  0  0  0  0  0  0  0  0  0
   11.7640    0.1050   24.4480 C   0  0  0  0  0  0  0  0  0  0  0  0
   12.1210    0.2600   23.4210 H   0  0  0  0  0  0  0  0  0  0  0  0
   12.1360    0.9340   25.0610 H   0  0  0  0  0  0  0  0  0  0  0  0
   12.2340   -0.8160   24.8170 H   0  0  0  0  0  0  0  0  0  0  0  0
    9.7510   -1.2110   23.6600 C   0  0  0  0  0  0  0  0  0  0  0  0
    8.2110   -1.2920   23.5960 C   0  0  0  0  0  0  0  0  0  0  0  0
    7.6100   -0.0490   23.1030 N   0  0  0  0  0  0  0  0  0  0  0  0
    7.4570    0.1610   21.7250 C   0  0  0  0  0  0  0  0  0  0  0  0
    8.0210    1.0490   21.1170 O   0  0  0  0  0  0  0  0  0  0  0  0
    6.5060   -0.8160   21.0220 C   0  0  0  0  0  0  0  0  0  0  0  0
    5.8110   -0.1800   19.8460 C   0  0  0  0  0  0  0  0  0  0  0  0
    6.2470   -0.4410   18.5720 C   0  0  0  0  0  0  0  0  0  0  0  0
    5.7660    0.1350   17.4370 N   0  0  0  0  0  0  0  0  0  0  0  0
    4.7980    1.0060   17.5870 C   0  0  0  0  0  0  0  0  0  0  0  0
    4.2330    1.3700   18.8390 C   0  0  0  0  0  0  0  0  0  0  0  0
    3.1860    2.3220   18.9430 C   0  0  0  0  0  0  0  0  0  0  0  0
    2.6630    2.6530   20.1620 C   0  0  0  0  0  0  0  0  0  0  0  0
    3.1730    2.0460   21.3360 C   0  0  0  0  0  0  0  0  0  0  0  0
    4.1880    1.1250   21.2640 C   0  0  0  0  0  0  0  0  0  0  0  0
    4.7510    0.7610   20.0100 C   0  0  0  0  0  0  0  0  0  0  0  0
    4.5670    0.6740   22.1770 H   0  0  0  0  0  0  0  0  0  0  0  0
    2.7560    2.3250   22.3020 H   0  0  0  0  0  0  0  0  0  0  0  0
    1.8630    3.3840   20.2330 H   0  0  0  0  0  0  0  0  0  0  0  0
    2.8160    2.7880   18.0300 H   0  0  0  0  0  0  0  0  0  0  0  0
    4.4040    1.4710   16.6790 H   0  0  0  0  0  0  0  0  0  0  0  0
    7.0420   -1.1650   18.4060 H   0  0  0  0  0  0  0  0  0  0  0  0
    7.1040   -1.6700   20.6730 H   0  0  0  0  0  0  0  0  0  0  0  0
    5.8030   -1.2030   21.7710 H   0  0  0  0  0  0  0  0  0  0  0  0
    7.8870   -2.1130   22.9490 H   0  0  0  0  0  0  0  0  0  0  0  0
    7.8190   -1.4700   24.6110 H   0  0  0  0  0  0  0  0  0  0  0  0
   10.1620   -1.1360   22.6420 H   0  0  0  0  0  0  0  0  0  0  0  0
   10.1590   -2.1360   24.0890 H   0  0  0  0  0  0  0  0  0  0  0  0
    9.9150   -0.1430   25.5200 H   0  0  0  0  0  0  0  0  0  0  0  0
    9.8930    1.4180   22.8690 H   0  0  0  0  0  0  0  0  0  0  0  0
    9.7670    2.1940   24.4560 H   0  0  0  0  0  0  0  0  0  0  0  0
    7.7480    0.7670   24.9470 H   0  0  0  0  0  0  0  0  0  0  0  0
    8.7770    3.3230   22.5390 H   0  0  0  0  0  0  0  0  0  0  0  0
    7.4460    5.2990   21.9520 H   0  0  0  0  0  0  0  0  0  0  0  0
    5.0860    5.4830   22.7260 H   0  0  0  0  0  0  0  0  0  0  0  0
    4.0980    3.6790   24.1050 H   0  0  0  0  0  0  0  0  0  0  0  0
    4.0010    0.5190   25.8570 H   0  0  0  0  0  0  0  0  0  0  0  0
    3.9250    2.3050   25.9830 H   0  0  0  0  0  0  0  0  0  0  0  0
    3.3570    1.4880   24.4960 H   0  0  0  0  0  0  0  0  0  0  0  0
  1  2  1  0  0  0  0
  1 52  1  0  0  0  0
  1 53  1  0  0  0  0
  1 54  1  0  0  0  0
  2  3  1  0  0  0  0
  3  4  2  0  0  0  0
  3  8  1  0  0  0  0
  4  5  1  0  0  0  0
  4 51  1  0  0  0  0
  5  6  2  0  0  0  0
  5 50  1  0  0  0  0
  6  7  1  0  0  0  0
  6 49  1  0  0  0  0
  7  8  2  0  0  0  0
  7 48  1  0  0  0  0
  8  9  1  0  0  0  0
  9 10  1  0  0  0  0
  9 18  1  0  0  0  0
  9 47  1  1  0  0  0
 10 11  1  0  0  0  0
 10 45  1  0  0  0  0
 10 46  1  0  0  0  0
 11 12  1  0  0  0  0
 11 16  1  0  0  0  0
 11 44  1  1  0  0  0
 12 13  1  0  0  0  0
 12 14  1  0  0  0  0
 12 15  1  0  0  0  0
 16 17  1  0  0  0  0
 16 42  1  0  0  0  0
 16 43  1  0  0  0  0
 17 18  1  0  0  0  0
 17 40  1  0  0  0  0
 17 41  1  0  0  0  0
 18 19  1  0  0  0  0
 19 20  2  0  0  0  0
 19 21  1  0  0  0  0
 21 22  1  0  0  0  0
 21 38  1  0  0  0  0
 21 39  1  0  0  0  0
 22 23  2  0  0  0  0
 22 31  1  0  0  0  0
 23 24  1  0  0  0  0
 23 37  1  0  0  0  0
 24 25  2  0  0  0  0
 25 26  1  0  0  0  0
 25 36  1  0  0  0  0
 26 27  2  0  0  0  0
 26 31  1  0  0  0  0
 27 28  1  0  0  0  0
 27 35  1  0  0  0  0
 28 29  2  0  0  0  0
 28 34  1  0  0  0  0
 29 30  1  0  0  0  0
 29 33  1  0  0  0  0
 30 31  2  0  0  0  0
 30 32  1  0  0  0  0
M  END
>  <MODEL>
       1

$$$$
best_conformers_11.pdb
 OpenBabel02042510453D

 54 57  0  0  1  0  0  0  0  0999 V2000
    7.7370    0.8620   25.6320 C   0  0  0  0  0  0  0  0  0  0  0  0
    8.1060   -0.1210   24.6930 O   0  0  0  0  0  0  0  0  0  0  0  0
    7.3810   -1.2660   24.5620 C   0  0  0  0  0  0  0  0  0  0  0  0
    6.3020   -1.5910   25.3890 C   0  0  0  0  0  0  0  0  0  0  0  0
    5.6370   -2.8030   25.2160 C   0  0  0  0  0  0  0  0  0  0  0  0
    6.0350   -3.6980   24.2350 C   0  0  0  0  0  0  0  0  0  0  0  0
    7.1070   -3.3560   23.4150 C   0  0  0  0  0  0  0  0  0  0  0  0
    7.7790   -2.1510   23.5450 C   0  0  0  0  0  0  0  0  0  0  0  0
    8.9400   -1.8490   22.6120 C   0  0  2  0  0  0  0  0  0  0  0  0
   10.2670   -2.0220   23.3670 C   0  0  0  0  0  0  0  0  0  0  0  0
   11.4880   -1.5830   22.5700 C   0  0  2  0  0  0  0  0  0  0  0  0
   12.7830   -1.7590   23.3670 C   0  0  0  0  0  0  0  0  0  0  0  0
   12.7610   -1.1490   24.2800 H   0  0  0  0  0  0  0  0  0  0  0  0
   12.9310   -2.8030   23.6700 H   0  0  0  0  0  0  0  0  0  0  0  0
   13.6590   -1.4450   22.7840 H   0  0  0  0  0  0  0  0  0  0  0  0
   11.2760   -0.1310   22.1610 C   0  0  0  0  0  0  0  0  0  0  0  0
   10.0040    0.0120   21.3460 C   0  0  0  0  0  0  0  0  0  0  0  0
    8.8260   -0.5320   22.0050 N   0  0  0  0  0  0  0  0  0  0  0  0
    7.6060    0.0490   21.6170 C   0  0  0  0  0  0  0  0  0  0  0  0
    7.4390    1.2470   21.6780 O   0  0  0  0  0  0  0  0  0  0  0  0
    6.5000   -0.8520   21.0270 C   0  0  0  0  0  0  0  0  0  0  0  0
    5.8110   -0.1840   19.8500 C   0  0  0  0  0  0  0  0  0  0  0  0
    6.2370   -0.4410   18.5740 C   0  0  0  0  0  0  0  0  0  0  0  0
    5.7620    0.1400   17.4400 N   0  0  0  0  0  0  0  0  0  0  0  0
    4.7900    1.0110   17.5850 C   0  0  0  0  0  0  0  0  0  0  0  0
    4.2310    1.3760   18.8390 C   0  0  0  0  0  0  0  0  0  0  0  0
    3.1810    2.3270   18.9390 C   0  0  0  0  0  0  0  0  0  0  0  0
    2.6610    2.6620   20.1600 C   0  0  0  0  0  0  0  0  0  0  0  0
    3.1740    2.0610   21.3320 C   0  0  0  0  0  0  0  0  0  0  0  0
    4.1950    1.1440   21.2600 C   0  0  0  0  0  0  0  0  0  0  0  0
    4.7530    0.7680   20.0080 C   0  0  0  0  0  0  0  0  0  0  0  0
    4.6010    0.7130   22.1720 H   0  0  0  0  0  0  0  0  0  0  0  0
    2.7600    2.3390   22.3000 H   0  0  0  0  0  0  0  0  0  0  0  0
    1.8580    3.3960   20.2380 H   0  0  0  0  0  0  0  0  0  0  0  0
    2.8050    2.7870   18.0270 H   0  0  0  0  0  0  0  0  0  0  0  0
    4.4000    1.4800   16.6800 H   0  0  0  0  0  0  0  0  0  0  0  0
    7.0320   -1.1670   18.3990 H   0  0  0  0  0  0  0  0  0  0  0  0
    6.9520   -1.7990   20.7020 H   0  0  0  0  0  0  0  0  0  0  0  0
    5.7810   -1.0960   21.8180 H   0  0  0  0  0  0  0  0  0  0  0  0
   10.1610   -0.4810   20.3700 H   0  0  0  0  0  0  0  0  0  0  0  0
    9.7500    1.0600   21.1820 H   0  0  0  0  0  0  0  0  0  0  0  0
   11.2160    0.5000   23.0570 H   0  0  0  0  0  0  0  0  0  0  0  0
   12.1390    0.2230   21.5820 H   0  0  0  0  0  0  0  0  0  0  0  0
   11.5550   -2.1990   21.6580 H   0  0  0  0  0  0  0  0  0  0  0  0
   10.3680   -3.0740   23.6500 H   0  0  0  0  0  0  0  0  0  0  0  0
   10.2170   -1.4520   24.2990 H   0  0  0  0  0  0  0  0  0  0  0  0
    8.9340   -2.5990   21.8070 H   0  0  0  0  0  0  0  0  0  0  0  0
    7.4290   -4.0570   22.6510 H   0  0  0  0  0  0  0  0  0  0  0  0
    5.5200   -4.6460   24.1010 H   0  0  0  0  0  0  0  0  0  0  0  0
    4.7990   -3.0470   25.8630 H   0  0  0  0  0  0  0  0  0  0  0  0
    5.9800   -0.9060   26.1690 H   0  0  0  0  0  0  0  0  0  0  0  0
    8.4510    1.6710   25.4760 H   0  0  0  0  0  0  0  0  0  0  0  0
    6.7260    1.2610   25.4700 H   0  0  0  0  0  0  0  0  0  0  0  0
    7.8250    0.5130   26.6700 H   0  0  0  0  0  0  0  0  0  0  0  0
  1  2  1  0  0  0  0
  1 52  1  0  0  0  0
  1 53  1  0  0  0  0
  1 54  1  0  0  0  0
  2  3  1  0  0  0  0
  3  4  2  0  0  0  0
  3  8  1  0  0  0  0
  4  5  1  0  0  0  0
  4 51  1  0  0  0  0
  5  6  2  0  0  0  0
  5 50  1  0  0  0  0
  6  7  1  0  0  0  0
  6 49  1  0  0  0  0
  7  8  2  0  0  0  0
  7 48  1  0  0  0  0
  8  9  1  0  0  0  0
  9 10  1  0  0  0  0
  9 18  1  0  0  0  0
  9 47  1  6  0  0  0
 10 11  1  0  0  0  0
 10 45  1  0  0  0  0
 10 46  1  0  0  0  0
 11 12  1  0  0  0  0
 11 16  1  0  0  0  0
 11 44  1  6  0  0  0
 12 13  1  0  0  0  0
 12 14  1  0  0  0  0
 12 15  1  0  0  0  0
 16 17  1  0  0  0  0
 16 42  1  0  0  0  0
 16 43  1  0  0  0  0
 17 18  1  0  0  0  0
 17 40  1  0  0  0  0
 17 41  1  0  0  0  0
 18 19  1  0  0  0  0
 19 20  2  0  0  0  0
 19 21  1  0  0  0  0
 21 22  1  0  0  0  0
 21 38  1  0  0  0  0
 21 39  1  0  0  0  0
 22 23  2  0  0  0  0
 22 31  1  0  0  0  0
 23 24  1  0  0  0  0
 23 37  1  0  0  0  0
 24 25  2  0  0  0  0
 25 26  1  0  0  0  0
 25 36  1  0  0  0  0
 26 27  2  0  0  0  0
 26 31  1  0  0  0  0
 27 28  1  0  0  0  0
 27 35  1  0  0  0  0
 28 29  2  0  0  0  0
 28 34  1  0  0  0  0
 29 30  1  0  0  0  0
 29 33  1  0  0  0  0
 30 31  2  0  0  0  0
 30 32  1  0  0  0  0
M  END
>  <MODEL>
       2

$$$$
best_conformers_11.pdb
 OpenBabel02042510453D

 54 57  0  0  1  0  0  0  0  0999 V2000
    4.8850   -4.4440   24.9610 C   0  0  0  0  0  0  0  0  0  0  0  0
    5.7110   -3.3880   24.5450 O   0  0  0  0  0  0  0  0  0  0  0  0
    5.2680   -2.1240   24.7990 C   0  0  0  0  0  0  0  0  0  0  0  0
    4.0580   -1.8510   25.4400 C   0  0  0  0  0  0  0  0  0  0  0  0
    3.6900   -0.5270   25.6690 C   0  0  0  0  0  0  0  0  0  0  0  0
    4.5190    0.5060   25.2650 C   0  0  0  0  0  0  0  0  0  0  0  0
    5.7140    0.2120   24.6060 C   0  0  0  0  0  0  0  0  0  0  0  0
    6.1190   -1.0970   24.3580 C   0  0  0  0  0  0  0  0  0  0  0  0
    7.4050   -1.5150   23.6230 C   0  0  2  0  0  0  0  0  0  0  0  0
    8.4270   -2.2560   24.5090 C   0  0  0  0  0  0  0  0  0  0  0  0
    9.3780   -1.3160   25.2260 C   0  0  2  0  0  0  0  0  0  0  0  0
    8.7080   -0.4630   26.2880 C   0  0  0  0  0  0  0  0  0  0  0  0
    8.1900   -1.0340   27.0650 H   0  0  0  0  0  0  0  0  0  0  0  0
    8.0070    0.2640   25.8810 H   0  0  0  0  0  0  0  0  0  0  0  0
    9.5350    0.1040   26.6880 H   0  0  0  0  0  0  0  0  0  0  0  0
   10.0740   -0.3900   24.2250 C   0  0  0  0  0  0  0  0  0  0  0  0
    9.0450    0.4250   23.4650 C   0  0  0  0  0  0  0  0  0  0  0  0
    8.0370   -0.4320   22.8560 N   0  0  0  0  0  0  0  0  0  0  0  0
    7.4840    0.0600   21.7010 C   0  0  0  0  0  0  0  0  0  0  0  0
    7.8130    1.1250   21.2120 O   0  0  0  0  0  0  0  0  0  0  0  0
    6.4520   -0.8430   21.0360 C   0  0  0  0  0  0  0  0  0  0  0  0
    5.8210   -0.1860   19.8640 C   0  0  0  0  0  0  0  0  0  0  0  0
    6.2930   -0.4400   18.6080 C   0  0  0  0  0  0  0  0  0  0  0  0
    5.8260    0.1230   17.4640 N   0  0  0  0  0  0  0  0  0  0  0  0
    4.8400    0.9810   17.6050 C   0  0  0  0  0  0  0  0  0  0  0  0
    4.2690    1.3580   18.8540 C   0  0  0  0  0  0  0  0  0  0  0  0
    3.2170    2.3030   18.9470 C   0  0  0  0  0  0  0  0  0  0  0  0
    2.6850    2.6380   20.1640 C   0  0  0  0  0  0  0  0  0  0  0  0
    3.1870    2.0430   21.3440 C   0  0  0  0  0  0  0  0  0  0  0  0
    4.2100    1.1310   21.2860 C   0  0  0  0  0  0  0  0  0  0  0  0
    4.7750    0.7620   20.0310 C   0  0  0  0  0  0  0  0  0  0  0  0
    4.5880    0.6920   22.2090 H   0  0  0  0  0  0  0  0  0  0  0  0
    2.7540    2.3190   22.3050 H   0  0  0  0  0  0  0  0  0  0  0  0
    1.8800    3.3650   20.2300 H   0  0  0  0  0  0  0  0  0  0  0  0
    2.8430    2.7540   18.0320 H   0  0  0  0  0  0  0  0  0  0  0  0
    4.4390    1.4280   16.6950 H   0  0  0  0  0  0  0  0  0  0  0  0
    7.1090   -1.1540   18.4890 H   0  0  0  0  0  0  0  0  0  0  0  0
    7.0030   -1.7440   20.7290 H   0  0  0  0  0  0  0  0  0  0  0  0
    5.6980   -1.1350   21.7740 H   0  0  0  0  0  0  0  0  0  0  0  0
    8.5840    1.1670   24.1320 H   0  0  0  0  0  0  0  0  0  0  0  0
    9.5030    0.9880   22.6540 H   0  0  0  0  0  0  0  0  0  0  0  0
   10.6940   -0.9440   23.5120 H   0  0  0  0  0  0  0  0  0  0  0  0
   10.7520    0.2920   24.7470 H   0  0  0  0  0  0  0  0  0  0  0  0
   10.1390   -1.9300   25.7200 H   0  0  0  0  0  0  0  0  0  0  0  0
    8.9870   -2.9490   23.8650 H   0  0  0  0  0  0  0  0  0  0  0  0
    7.8900   -2.8750   25.2350 H   0  0  0  0  0  0  0  0  0  0  0  0
    7.0940   -2.2650   22.8920 H   0  0  0  0  0  0  0  0  0  0  0  0
    6.3540    1.0340   24.2990 H   0  0  0  0  0  0  0  0  0  0  0  0
    4.2550    1.5450   25.4480 H   0  0  0  0  0  0  0  0  0  0  0  0
    2.7470   -0.3050   26.1580 H   0  0  0  0  0  0  0  0  0  0  0  0
    3.3990   -2.6500   25.7630 H   0  0  0  0  0  0  0  0  0  0  0  0
    5.3820   -5.3770   24.6950 H   0  0  0  0  0  0  0  0  0  0  0  0
    4.7260   -4.4190   26.0480 H   0  0  0  0  0  0  0  0  0  0  0  0
    3.9140   -4.3940   24.4510 H   0  0  0  0  0  0  0  0  0  0  0  0
  1  2  1  0  0  0  0
  1 52  1  0  0  0  0
  1 53  1  0  0  0  0
  1 54  1  0  0  0  0
  2  3  1  0  0  0  0
  3  4  2  0  0  0  0
  3  8  1  0  0  0  0
  4  5  1  0  0  0  0
  4 51  1  0  0  0  0
  5  6  2  0  0  0  0
  5 50  1  0  0  0  0
  6  7  1  0  0  0  0
  6 49  1  0  0  0  0
  7  8  2  0  0  0  0
  7 48  1  0  0  0  0
  8  9  1  0  0  0  0
  9 10  1  0  0  0  0
  9 18  1  0  0  0  0
  9 47  1  6  0  0  0
 10 11  1  0  0  0  0
 10 45  1  0  0  0  0
 10 46  1  0  0  0  0
 11 12  1  0  0  0  0
 11 16  1  0  0  0  0
 11 44  1  1  0  0  0
 12 13  1  0  0  0  0
 12 14  1  0  0  0  0
 12 15  1  0  0  0  0
 16 17  1  0  0  0  0
 16 42  1  0  0  0  0
 16 43  1  0  0  0  0
 17 18  1  0  0  0  0
 17 40  1  0  0  0  0
 17 41  1  0  0  0  0
 18 19  1  0  0  0  0
 19 20  2  0  0  0  0
 19 21  1  0  0  0  0
 21 22  1  0  0  0  0
 21 38  1  0  0  0  0
 21 39  1  0  0  0  0
 22 23  2  0  0  0  0
 22 31  1  0  0  0  0
 23 24  1  0  0  0  0
 23 37  1  0  0  0  0
 24 25  2  0  0  0  0
 25 26  1  0  0  0  0
 25 36  1  0  0  0  0
 26 27  2  0  0  0  0
 26 31  1  0  0  0  0
 27 28  1  0  0  0  0
 27 35  1  0  0  0  0
 28 29  2  0  0  0  0
 28 34  1  0  0  0  0
 29 30  1  0  0  0  0
 29 33  1  0  0  0  0
 30 31  2  0  0  0  0
 30 32  1  0  0  0  0
M  END
>  <MODEL>
       3

$$$$
best_conformers_11.pdb
 OpenBabel02042510453D

 54 57  0  0  1  0  0  0  0  0999 V2000
    7.0950   -5.5330   21.9410 C   0  0  0  0  0  0  0  0  0  0  0  0
    7.7520   -4.3020   22.1040 O   0  0  0  0  0  0  0  0  0  0  0  0
    7.4430   -3.5450   23.1900 C   0  0  0  0  0  0  0  0  0  0  0  0
    6.5040   -3.9090   24.1590 C   0  0  0  0  0  0  0  0  0  0  0  0
    6.2660   -3.0520   25.2350 C   0  0  0  0  0  0  0  0  0  0  0  0
    6.9550   -1.8490   25.3450 C   0  0  0  0  0  0  0  0  0  0  0  0
    7.8820   -1.5010   24.3680 C   0  0  0  0  0  0  0  0  0  0  0  0
    8.1280   -2.3310   23.2860 C   0  0  0  0  0  0  0  0  0  0  0  0
    9.1440   -1.9110   22.2510 C   0  0  2  0  0  0  0  0  0  0  0  0
   10.5560   -2.0630   22.8650 C   0  0  0  0  0  0  0  0  0  0  0  0
   11.6650   -1.4430   22.0120 C   0  0  2  0  0  0  0  0  0  0  0  0
   13.0730   -1.6250   22.5740 C   0  0  0  0  0  0  0  0  0  0  0  0
   13.8200   -1.2360   21.8720 H   0  0  0  0  0  0  0  0  0  0  0  0
   13.1790   -1.0680   23.5140 H   0  0  0  0  0  0  0  0  0  0  0  0
   13.3090   -2.6770   22.7650 H   0  0  0  0  0  0  0  0  0  0  0  0
   11.3070    0.0310   21.8820 C   0  0  0  0  0  0  0  0  0  0  0  0
    9.9810    0.1050   21.1570 C   0  0  0  0  0  0  0  0  0  0  0  0
    8.8990   -0.5200   21.8870 N   0  0  0  0  0  0  0  0  0  0  0  0
    7.6410    0.0230   21.5820 C   0  0  0  0  0  0  0  0  0  0  0  0
    7.4640    1.2210   21.6840 O   0  0  0  0  0  0  0  0  0  0  0  0
    6.5140   -0.8640   21.0360 C   0  0  0  0  0  0  0  0  0  0  0  0
    5.8240   -0.1940   19.8600 C   0  0  0  0  0  0  0  0  0  0  0  0
    6.2570   -0.4470   18.5820 C   0  0  0  0  0  0  0  0  0  0  0  0
    5.7780    0.1320   17.4470 N   0  0  0  0  0  0  0  0  0  0  0  0
    4.8050    1.0010   17.5880 C   0  0  0  0  0  0  0  0  0  0  0  0
    4.2390    1.3590   18.8430 C   0  0  0  0  0  0  0  0  0  0  0  0
    3.1910    2.3120   18.9390 C   0  0  0  0  0  0  0  0  0  0  0  0
    2.6680    2.6510   20.1590 C   0  0  0  0  0  0  0  0  0  0  0  0
    3.1810    2.0530   21.3310 C   0  0  0  0  0  0  0  0  0  0  0  0
    4.2020    1.1360   21.2610 C   0  0  0  0  0  0  0  0  0  0  0  0
    4.7610    0.7540   20.0120 C   0  0  0  0  0  0  0  0  0  0  0  0
    4.6150    0.7220   22.1750 H   0  0  0  0  0  0  0  0  0  0  0  0
    2.7630    2.3300   22.2960 H   0  0  0  0  0  0  0  0  0  0  0  0
    1.8690    3.3850   20.2320 H   0  0  0  0  0  0  0  0  0  0  0  0
    2.8210    2.7750   18.0260 H   0  0  0  0  0  0  0  0  0  0  0  0
    4.4090    1.4650   16.6820 H   0  0  0  0  0  0  0  0  0  0  0  0
    7.0530   -1.1690   18.4040 H   0  0  0  0  0  0  0  0  0  0  0  0
    6.9450   -1.8230   20.7240 H   0  0  0  0  0  0  0  0  0  0  0  0
    5.8120   -1.0720   21.8500 H   0  0  0  0  0  0  0  0  0  0  0  0
    9.6330    1.1120   20.9190 H   0  0  0  0  0  0  0  0  0  0  0  0
   10.1050   -0.4620   20.2210 H   0  0  0  0  0  0  0  0  0  0  0  0
   11.2620    0.4870   22.8750 H   0  0  0  0  0  0  0  0  0  0  0  0
   12.0790    0.5720   21.3250 H   0  0  0  0  0  0  0  0  0  0  0  0
   11.6300   -1.8660   20.9960 H   0  0  0  0  0  0  0  0  0  0  0  0
   10.5490   -1.5280   23.8290 H   0  0  0  0  0  0  0  0  0  0  0  0
   10.7400   -3.1250   23.0700 H   0  0  0  0  0  0  0  0  0  0  0  0
    9.0540   -2.5480   21.3600 H   0  0  0  0  0  0  0  0  0  0  0  0
    8.4180   -0.5540   24.4220 H   0  0  0  0  0  0  0  0  0  0  0  0
    6.7800   -1.1720   26.1760 H   0  0  0  0  0  0  0  0  0  0  0  0
    5.5330   -3.3330   25.9900 H   0  0  0  0  0  0  0  0  0  0  0  0
    5.9700   -4.8510   24.0760 H   0  0  0  0  0  0  0  0  0  0  0  0
    7.2970   -6.2020   22.7890 H   0  0  0  0  0  0  0  0  0  0  0  0
    6.0110   -5.3880   21.8450 H   0  0  0  0  0  0  0  0  0  0  0  0
    7.5080   -5.9480   21.0190 H   0  0  0  0  0  0  0  0  0  0  0  0
  1  2  1  0  0  0  0
  1 52  1  0  0  0  0
  1 53  1  0  0  0  0
  1 54  1  0  0  0  0
  2  3  1  0  0  0  0
  3  4  2  0  0  0  0
  3  8  1  0  0  0  0
  4  5  1  0  0  0  0
  4 51  1  0  0  0  0
  5  6  2  0  0  0  0
  5 50  1  0  0  0  0
  6  7  1  0  0  0  0
  6 49  1  0  0  0  0
  7  8  2  0  0  0  0
  7 48  1  0  0  0  0
  8  9  1  0  0  0  0
  9 10  1  0  0  0  0
  9 18  1  0  0  0  0
  9 47  1  6  0  0  0
 10 11  1  0  0  0  0
 10 45  1  0  0  0  0
 10 46  1  0  0  0  0
 11 12  1  0  0  0  0
 11 16  1  0  0  0  0
 11 44  1  6  0  0  0
 12 13  1  0  0  0  0
 12 14  1  0  0  0  0
 12 15  1  0  0  0  0
 16 17  1  0  0  0  0
 16 42  1  0  0  0  0
 16 43  1  0  0  0  0
 17 18  1  0  0  0  0
 17 40  1  0  0  0  0
 17 41  1  0  0  0  0
 18 19  1  0  0  0  0
 19 20  2  0  0  0  0
 19 21  1  0  0  0  0
 21 22  1  0  0  0  0
 21 38  1  0  0  0  0
 21 39  1  0  0  0  0
 22 23  2  0  0  0  0
 22 31  1  0  0  0  0
 23 24  1  0  0  0  0
 23 37  1  0  0  0  0
 24 25  2  0  0  0  0
 25 26  1  0  0  0  0
 25 36  1  0  0  0  0
 26 27  2  0  0  0  0
 26 31  1  0  0  0  0
 27 28  1  0  0  0  0
 27 35  1  0  0  0  0
 28 29  2  0  0  0  0
 28 34  1  0  0  0  0
 29 30  1  0  0  0  0
 29 33  1  0  0  0  0
 30 31  2  0  0  0  0
 30 32  1  0  0  0  0
M  END
>  <MODEL>
       4

$$$$
best_conformers_11.pdb
 OpenBabel02042510453D

 54 57  0  0  1  0  0  0  0  0999 V2000
   11.2770   -1.2570   25.0250 C   0  0  0  0  0  0  0  0  0  0  0  0
   10.1340   -0.5220   24.6370 O   0  0  0  0  0  0  0  0  0  0  0  0
    8.8880   -1.0430   24.8080 C   0  0  0  0  0  0  0  0  0  0  0  0
    8.6590   -2.2880   25.4040 C   0  0  0  0  0  0  0  0  0  0  0  0
    7.3560   -2.7510   25.5610 C   0  0  0  0  0  0  0  0  0  0  0  0
    6.2820   -1.9880   25.1310 C   0  0  0  0  0  0  0  0  0  0  0  0
    6.5260   -0.7540   24.5430 C   0  0  0  0  0  0  0  0  0  0  0  0
    7.8080   -0.2580   24.3630 C   0  0  0  0  0  0  0  0  0  0  0  0
    8.0020    1.0890   23.6890 C   0  0  2  0  0  0  0  0  0  0  0  0
    7.3520    2.2000   24.5240 C   0  0  0  0  0  0  0  0  0  0  0  0
    7.4490    3.5700   23.8530 C   0  0  2  0  0  0  0  0  0  0  0  0
    6.7870    4.6680   24.6930 C   0  0  0  0  0  0  0  0  0  0  0  0
    5.7150    4.4660   24.8270 H   0  0  0  0  0  0  0  0  0  0  0  0
    7.2390    4.7380   25.6920 H   0  0  0  0  0  0  0  0  0  0  0  0
    6.8760    5.6520   24.2110 H   0  0  0  0  0  0  0  0  0  0  0  0
    6.8310    3.4830   22.4620 C   0  0  0  0  0  0  0  0  0  0  0  0
    7.4860    2.3820   21.6460 C   0  0  0  0  0  0  0  0  0  0  0  0
    7.3760    1.0960   22.3500 N   0  0  0  0  0  0  0  0  0  0  0  0
    7.6860   -0.0330   21.5050 C   0  0  0  0  0  0  0  0  0  0  0  0
    8.8170   -0.3010   21.2040 O   0  0  0  0  0  0  0  0  0  0  0  0
    6.4930   -0.8380   21.0040 C   0  0  0  0  0  0  0  0  0  0  0  0
    5.8080   -0.1650   19.8380 C   0  0  0  0  0  0  0  0  0  0  0  0
    6.2380   -0.4360   18.5650 C   0  0  0  0  0  0  0  0  0  0  0  0
    5.7630    0.1400   17.4340 N   0  0  0  0  0  0  0  0  0  0  0  0
    4.7910    1.0120   17.5820 C   0  0  0  0  0  0  0  0  0  0  0  0
    4.2300    1.3840   18.8320 C   0  0  0  0  0  0  0  0  0  0  0  0
    3.1840    2.3380   18.9390 C   0  0  0  0  0  0  0  0  0  0  0  0
    2.6660    2.6770   20.1600 C   0  0  0  0  0  0  0  0  0  0  0  0
    3.1750    2.0810   21.3310 C   0  0  0  0  0  0  0  0  0  0  0  0
    4.1990    1.1630   21.2550 C   0  0  0  0  0  0  0  0  0  0  0  0
    4.7520    0.7770   20.0050 C   0  0  0  0  0  0  0  0  0  0  0  0
    4.5920    0.7370   22.1750 H   0  0  0  0  0  0  0  0  0  0  0  0
    2.7700    2.3630   22.3030 H   0  0  0  0  0  0  0  0  0  0  0  0
    1.8680    3.4160   20.2380 H   0  0  0  0  0  0  0  0  0  0  0  0
    2.8100    2.7960   18.0260 H   0  0  0  0  0  0  0  0  0  0  0  0
    4.4030    1.4780   16.6770 H   0  0  0  0  0  0  0  0  0  0  0  0
    7.0300   -1.1700   18.4070 H   0  0  0  0  0  0  0  0  0  0  0  0
    6.8860   -1.8100   20.6860 H   0  0  0  0  0  0  0  0  0  0  0  0
    5.8040   -1.0010   21.8390 H   0  0  0  0  0  0  0  0  0  0  0  0
    8.5310    2.6680   21.4240 H   0  0  0  0  0  0  0  0  0  0  0  0
    6.9710    2.2960   20.6840 H   0  0  0  0  0  0  0  0  0  0  0  0
    6.9170    4.4510   21.9460 H   0  0  0  0  0  0  0  0  0  0  0  0
    5.7600    3.2610   22.5500 H   0  0  0  0  0  0  0  0  0  0  0  0
    8.5160    3.8230   23.7370 H   0  0  0  0  0  0  0  0  0  0  0  0
    7.8260    2.2360   25.5110 H   0  0  0  0  0  0  0  0  0  0  0  0
    6.2940    1.9600   24.6950 H   0  0  0  0  0  0  0  0  0  0  0  0
    9.0790    1.2940   23.6330 H   0  0  0  0  0  0  0  0  0  0  0  0
    5.6770   -0.1570   24.2180 H   0  0  0  0  0  0  0  0  0  0  0  0
    5.2620   -2.3400   25.2530 H   0  0  0  0  0  0  0  0  0  0  0  0
    7.1780   -3.7160   26.0240 H   0  0  0  0  0  0  0  0  0  0  0  0
    9.4860   -2.9030   25.7500 H   0  0  0  0  0  0  0  0  0  0  0  0
   12.1140   -0.6170   24.7480 H   0  0  0  0  0  0  0  0  0  0  0  0
   11.3110   -1.4440   26.1070 H   0  0  0  0  0  0  0  0  0  0  0  0
   11.3710   -2.2150   24.4930 H   0  0  0  0  0  0  0  0  0  0  0  0
  1  2  1  0  0  0  0
  1 52  1  0  0  0  0
  1 53  1  0  0  0  0
  1 54  1  0  0  0  0
  2  3  1  0  0  0  0
  3  4  2  0  0  0  0
  3  8  1  0  0  0  0
  4  5  1  0  0  0  0
  4 51  1  0  0  0  0
  5  6  2  0  0  0  0
  5 50  1  0  0  0  0
  6  7  1  0  0  0  0
  6 49  1  0  0  0  0
  7  8  2  0  0  0  0
  7 48  1  0  0  0  0
  8  9  1  0  0  0  0
  9 10  1  0  0  0  0
  9 18  1  0  0  0  0
  9 47  1  6  0  0  0
 10 11  1  0  0  0  0
 10 45  1  0  0  0  0
 10 46  1  0  0  0  0
 11 12  1  0  0  0  0
 11 16  1  0  0  0  0
 11 44  1  6  0  0  0
 12 13  1  0  0  0  0
 12 14  1  0  0  0  0
 12 15  1  0  0  0  0
 16 17  1  0  0  0  0
 16 42  1  0  0  0  0
 16 43  1  0  0  0  0
 17 18  1  0  0  0  0
 17 40  1  0  0  0  0
 17 41  1  0  0  0  0
 18 19  1  0  0  0  0
 19 20  2  0  0  0  0
 19 21  1  0  0  0  0
 21 22  1  0  0  0  0
 21 38  1  0  0  0  0
 21 39  1  0  0  0  0
 22 23  2  0  0  0  0
 22 31  1  0  0  0  0
 23 24  1  0  0  0  0
 23 37  1  0  0  0  0
 24 25  2  0  0  0  0
 25 26  1  0  0  0  0
 25 36  1  0  0  0  0
 26 27  2  0  0  0  0
 26 31  1  0  0  0  0
 27 28  1  0  0  0  0
 27 35  1  0  0  0  0
 28 29  2  0  0  0  0
 28 34  1  0  0  0  0
 29 30  1  0  0  0  0
 29 33  1  0  0  0  0
 30 31  2  0  0  0  0
 30 32  1  0  0  0  0
M  END
>  <MODEL>
       5

$$$$
best_conformers_11.pdb
 OpenBabel02042510453D

 54 57  0  0  1  0  0  0  0  0999 V2000
    4.5080   -1.0050   24.6230 C   0  0  0  0  0  0  0  0  0  0  0  0
    5.7830   -0.4770   24.3420 O   0  0  0  0  0  0  0  0  0  0  0  0
    6.9130   -1.2120   24.5830 C   0  0  0  0  0  0  0  0  0  0  0  0
    6.8810   -2.5190   25.0790 C   0  0  0  0  0  0  0  0  0  0  0  0
    8.0710   -3.2120   25.2990 C   0  0  0  0  0  0  0  0  0  0  0  0
    9.2980   -2.6220   25.0330 C   0  0  0  0  0  0  0  0  0  0  0  0
    9.3080   -1.3190   24.5380 C   0  0  0  0  0  0  0  0  0  0  0  0
    8.1440   -0.5960   24.3020 C   0  0  0  0  0  0  0  0  0  0  0  0
    8.2390    0.8130   23.7290 C   0  0  2  0  0  0  0  0  0  0  0  0
    7.7720    1.8450   24.7620 C   0  0  0  0  0  0  0  0  0  0  0  0
    7.7270    3.2620   24.2120 C   0  0  2  0  0  0  0  0  0  0  0  0
    7.1980    4.2510   25.2490 C   0  0  0  0  0  0  0  0  0  0  0  0
    7.8060    4.2490   26.1610 H   0  0  0  0  0  0  0  0  0  0  0  0
    7.1820    5.2740   24.8550 H   0  0  0  0  0  0  0  0  0  0  0  0
    6.1720    3.9960   25.5400 H   0  0  0  0  0  0  0  0  0  0  0  0
    6.8850    3.2690   22.9440 C   0  0  0  0  0  0  0  0  0  0  0  0
    7.4420    2.2980   21.9190 C   0  0  0  0  0  0  0  0  0  0  0  0
    7.4720    0.9400   22.4740 N   0  0  0  0  0  0  0  0  0  0  0  0
    7.7130   -0.0920   21.4880 C   0  0  0  0  0  0  0  0  0  0  0  0
    8.8090   -0.3210   21.0470 O   0  0  0  0  0  0  0  0  0  0  0  0
    6.4770   -0.8520   21.0100 C   0  0  0  0  0  0  0  0  0  0  0  0
    5.8000   -0.1700   19.8430 C   0  0  0  0  0  0  0  0  0  0  0  0
    6.2380   -0.4350   18.5660 C   0  0  0  0  0  0  0  0  0  0  0  0
    5.7600    0.1410   17.4350 N   0  0  0  0  0  0  0  0  0  0  0  0
    4.7860    1.0100   17.5810 C   0  0  0  0  0  0  0  0  0  0  0  0
    4.2250    1.3810   18.8340 C   0  0  0  0  0  0  0  0  0  0  0  0
    3.1810    2.3360   18.9380 C   0  0  0  0  0  0  0  0  0  0  0  0
    2.6680    2.6790   20.1620 C   0  0  0  0  0  0  0  0  0  0  0  0
    3.1850    2.0860   21.3350 C   0  0  0  0  0  0  0  0  0  0  0  0
    4.2060    1.1640   21.2650 C   0  0  0  0  0  0  0  0  0  0  0  0
    4.7500    0.7810   20.0080 C   0  0  0  0  0  0  0  0  0  0  0  0
    4.5970    0.7330   22.1860 H   0  0  0  0  0  0  0  0  0  0  0  0
    2.7780    2.3680   22.3010 H   0  0  0  0  0  0  0  0  0  0  0  0
    1.8700    3.4140   20.2380 H   0  0  0  0  0  0  0  0  0  0  0  0
    2.8040    2.7950   18.0270 H   0  0  0  0  0  0  0  0  0  0  0  0
    4.4000    1.4830   16.6780 H   0  0  0  0  0  0  0  0  0  0  0  0
    7.0280   -1.1690   18.4100 H   0  0  0  0  0  0  0  0  0  0  0  0
    5.7960   -1.0040   21.8520 H   0  0  0  0  0  0  0  0  0  0  0  0
    6.8410   -1.8320   20.6850 H   0  0  0  0  0  0  0  0  0  0  0  0
    6.7970    2.2910   21.0360 H   0  0  0  0  0  0  0  0  0  0  0  0
    8.4310    2.6610   21.5790 H   0  0  0  0  0  0  0  0  0  0  0  0
    5.8550    2.9730   23.1770 H   0  0  0  0  0  0  0  0  0  0  0  0
    6.8390    4.2820   22.5270 H   0  0  0  0  0  0  0  0  0  0  0  0
    8.7500    3.5620   23.9440 H   0  0  0  0  0  0  0  0  0  0  0  0
    6.7840    1.5520   25.1140 H   0  0  0  0  0  0  0  0  0  0  0  0
    8.4310    1.8020   25.6360 H   0  0  0  0  0  0  0  0  0  0  0  0
    9.3070    1.0150   23.5490 H   0  0  0  0  0  0  0  0  0  0  0  0
   10.2670   -0.8590   24.3200 H   0  0  0  0  0  0  0  0  0  0  0  0
   10.2280   -3.1640   25.2020 H   0  0  0  0  0  0  0  0  0  0  0  0
    8.0360   -4.2270   25.6850 H   0  0  0  0  0  0  0  0  0  0  0  0
    5.9350   -3.0030   25.2980 H   0  0  0  0  0  0  0  0  0  0  0  0
    3.8080   -0.2120   24.3690 H   0  0  0  0  0  0  0  0  0  0  0  0
    4.3630   -1.2540   25.6810 H   0  0  0  0  0  0  0  0  0  0  0  0
    4.2610   -1.8860   24.0190 H   0  0  0  0  0  0  0  0  0  0  0  0
  1  2  1  0  0  0  0
  1 52  1  0  0  0  0
  1 53  1  0  0  0  0
  1 54  1  0  0  0  0
  2  3  1  0  0  0  0
  3  4  2  0  0  0  0
  3  8  1  0  0  0  0
  4  5  1  0  0  0  0
  4 51  1  0  0  0  0
  5  6  2  0  0  0  0
  5 50  1  0  0  0  0
  6  7  1  0  0  0  0
  6 49  1  0  0  0  0
  7  8  2  0  0  0  0
  7 48  1  0  0  0  0
  8  9  1  0  0  0  0
  9 10  1  0  0  0  0
  9 18  1  0  0  0  0
  9 47  1  6  0  0  0
 10 11  1  0  0  0  0
 10 45  1  0  0  0  0
 10 46  1  0  0  0  0
 11 12  1  0  0  0  0
 11 16  1  0  0  0  0
 11 44  1  6  0  0  0
 12 13  1  0  0  0  0
 12 14  1  0  0  0  0
 12 15  1  0  0  0  0
 16 17  1  0  0  0  0
 16 42  1  0  0  0  0
 16 43  1  0  0  0  0
 17 18  1  0  0  0  0
 17 40  1  0  0  0  0
 17 41  1  0  0  0  0
 18 19  1  0  0  0  0
 19 20  2  0  0  0  0
 19 21  1  0  0  0  0
 21 22  1  0  0  0  0
 21 38  1  0  0  0  0
 21 39  1  0  0  0  0
 22 23  2  0  0  0  0
 22 31  1  0  0  0  0
 23 24  1  0  0  0  0
 23 37  1  0  0  0  0
 24 25  2  0  0  0  0
 25 26  1  0  0  0  0
 25 36  1  0  0  0  0
 26 27  2  0  0  0  0
 26 31  1  0  0  0  0
 27 28  1  0  0  0  0
 27 35  1  0  0  0  0
 28 29  2  0  0  0  0
 28 34  1  0  0  0  0
 29 30  1  0  0  0  0
 29 33  1  0  0  0  0
 30 31  2  0  0  0  0
 30 32  1  0  0  0  0
M  END
>  <MODEL>
       6

$$$$
