best_conformers_5.pdb
 OpenBabel02042510453D

 50 54  0  0  1  0  0  0  0  0999 V2000
    8.9980   -2.6950   22.1660 C   0  0  0  0  0  0  0  0  0  0  0  0
    7.9780   -1.6150   22.5790 C   0  0  1  0  0  0  0  0  0  0  0  0
    7.7490   -0.6170   21.4120 C   0  0  0  0  0  0  0  0  0  0  0  0
    6.3940   -0.8760   20.9620 N   0  0  0  0  0  0  0  0  0  0  0  0
    5.8010   -0.2080   19.8550 C   0  0  0  0  0  0  0  0  0  0  0  0
    6.2520   -0.4600   18.5830 C   0  0  0  0  0  0  0  0  0  0  0  0
    5.7790    0.1350   17.4600 N   0  0  0  0  0  0  0  0  0  0  0  0
    4.8040    1.0020   17.6060 C   0  0  0  0  0  0  0  0  0  0  0  0
    4.2370    1.3660   18.8600 C   0  0  0  0  0  0  0  0  0  0  0  0
    3.1880    2.3240   18.9550 C   0  0  0  0  0  0  0  0  0  0  0  0
    2.6760    2.6700   20.1750 C   0  0  0  0  0  0  0  0  0  0  0  0
    3.1990    2.0850   21.3530 C   0  0  0  0  0  0  0  0  0  0  0  0
    4.2140    1.1630   21.2870 C   0  0  0  0  0  0  0  0  0  0  0  0
    4.7490    0.7560   20.0270 C   0  0  0  0  0  0  0  0  0  0  0  0
    4.6020    0.7200   22.2040 H   0  0  0  0  0  0  0  0  0  0  0  0
    2.7850    2.3690   22.3190 H   0  0  0  0  0  0  0  0  0  0  0  0
    1.8730    3.4030   20.2490 H   0  0  0  0  0  0  0  0  0  0  0  0
    2.8140    2.7780   18.0400 H   0  0  0  0  0  0  0  0  0  0  0  0
    4.4140    1.4610   16.6990 H   0  0  0  0  0  0  0  0  0  0  0  0
    7.0460   -1.1890   18.4250 H   0  0  0  0  0  0  0  0  0  0  0  0
    5.6850   -1.7410   21.7630 C   0  0  0  0  0  0  0  0  0  0  0  0
    4.5520   -2.1170   21.5400 O   0  0  0  0  0  0  0  0  0  0  0  0
    6.5570   -2.1290   22.9800 C   0  0  1  0  0  0  0  0  0  0  0  0
    6.4860   -3.6550   23.2080 C   0  0  0  0  0  0  0  0  0  0  0  0
    5.1630   -4.0590   23.6370 N   0  0  0  0  0  0  0  0  0  0  0  0
    4.5370   -5.2280   23.0680 C   0  0  0  0  0  0  0  0  0  0  0  0
    4.7130   -6.4650   23.8690 C   0  0  0  0  0  0  0  0  0  0  0  0
    4.8120   -7.4540   24.4600 N   0  0  0  0  0  0  0  0  0  0  0  0
    4.9540   -5.3880   22.0670 H   0  0  0  0  0  0  0  0  0  0  0  0
    3.4630   -5.0480   22.9510 H   0  0  0  0  0  0  0  0  0  0  0  0
    4.5510   -3.4660   24.7040 C   0  0  0  0  0  0  0  0  0  0  0  0
    3.6340   -4.0120   25.2930 O   0  0  0  0  0  0  0  0  0  0  0  0
    5.0650   -2.1000   25.0510 C   0  0  0  0  0  0  0  0  0  0  0  0
    4.5210   -1.4620   26.1660 C   0  0  0  0  0  0  0  0  0  0  0  0
    4.8540   -0.1560   26.4630 C   0  0  0  0  0  0  0  0  0  0  0  0
    5.7290    0.4990   25.6090 C   0  0  0  0  0  0  0  0  0  0  0  0
    6.0400    1.7790   25.8770 F   0  0  0  0  0  0  0  0  0  0  0  0
    6.2920   -0.1090   24.5040 C   0  0  0  0  0  0  0  0  0  0  0  0
    5.9920   -1.4480   24.2260 C   0  0  0  0  0  0  0  0  0  0  0  0
    6.9460    0.4900   23.8780 H   0  0  0  0  0  0  0  0  0  0  0  0
    4.4450    0.3740   27.3150 H   0  0  0  0  0  0  0  0  0  0  0  0
    3.8120   -2.0120   26.7740 H   0  0  0  0  0  0  0  0  0  0  0  0
    7.2360   -3.9460   23.9590 H   0  0  0  0  0  0  0  0  0  0  0  0
    6.7030   -4.1750   22.2760 H   0  0  0  0  0  0  0  0  0  0  0  0
    8.4620   -0.7820   20.5940 H   0  0  0  0  0  0  0  0  0  0  0  0
    7.8710    0.4290   21.7320 H   0  0  0  0  0  0  0  0  0  0  0  0
    8.4200   -1.0980   23.4400 H   0  0  0  0  0  0  0  0  0  0  0  0
    9.2070   -3.3970   22.9810 H   0  0  0  0  0  0  0  0  0  0  0  0
    8.6480   -3.2770   21.3050 H   0  0  0  0  0  0  0  0  0  0  0  0
    9.9530   -2.2280   21.8850 H   0  0  0  0  0  0  0  0  0  0  0  0
  1  2  1  0  0  0  0
  1 48  1  0  0  0  0
  1 49  1  0  0  0  0
  1 50  1  0  0  0  0
  2  3  1  0  0  0  0
  2 23  1  0  0  0  0
  2 47  1  1  0  0  0
  3  4  1  0  0  0  0
  3 45  1  0  0  0  0
  3 46  1  0  0  0  0
  4  5  1  0  0  0  0
  4 21  1  0  0  0  0
  5  6  2  0  0  0  0
  5 14  1  0  0  0  0
  6  7  1  0  0  0  0
  6 20  1  0  0  0  0
  7  8  2  0  0  0  0
  8  9  1  0  0  0  0
  8 19  1  0  0  0  0
  9 10  2  0  0  0  0
  9 14  1  0  0  0  0
 10 11  1  0  0  0  0
 10 18  1  0  0  0  0
 11 12  2  0  0  0  0
 11 17  1  0  0  0  0
 12 13  1  0  0  0  0
 12 16  1  0  0  0  0
 13 14  2  0  0  0  0
 13 15  1  0  0  0  0
 21 22  2  0  0  0  0
 23 21  1  6  0  0  0
 23 24  1  0  0  0  0
 23 39  1  0  0  0  0
 24 25  1  0  0  0  0
 24 43  1  0  0  0  0
 24 44  1  0  0  0  0
 25 26  1  0  0  0  0
 25 31  1  0  0  0  0
 26 27  1  0  0  0  0
 26 29  1  0  0  0  0
 26 30  1  0  0  0  0
 27 28  3  0  0  0  0
 31 32  2  0  0  0  0
 31 33  1  0  0  0  0
 33 34  2  0  0  0  0
 33 39  1  0  0  0  0
 34 35  1  0  0  0  0
 34 42  1  0  0  0  0
 35 36  2  0  0  0  0
 35 41  1  0  0  0  0
 36 37  1  0  0  0  0
 36 38  1  0  0  0  0
 38 39  2  0  0  0  0
 38 40  1  0  0  0  0
M  END
>  <MODEL>
       1

$$$$
best_conformers_5.pdb
 OpenBabel02042510453D

 50 54  0  0  1  0  0  0  0  0999 V2000
    6.8520   -3.6360   23.3070 C   0  0  0  0  0  0  0  0  0  0  0  0
    7.2900   -2.4750   22.4060 C   0  0  1  0  0  0  0  0  0  0  0  0
    6.3080   -2.2060   21.2530 C   0  0  0  0  0  0  0  0  0  0  0  0
    6.4600   -0.7870   20.9790 N   0  0  0  0  0  0  0  0  0  0  0  0
    5.8490   -0.1510   19.8660 C   0  0  0  0  0  0  0  0  0  0  0  0
    6.2570   -0.4560   18.5900 C   0  0  0  0  0  0  0  0  0  0  0  0
    5.7660    0.1170   17.4640 N   0  0  0  0  0  0  0  0  0  0  0  0
    4.8040    0.9990   17.6070 C   0  0  0  0  0  0  0  0  0  0  0  0
    4.2390    1.3660   18.8590 C   0  0  0  0  0  0  0  0  0  0  0  0
    3.1770    2.3110   18.9530 C   0  0  0  0  0  0  0  0  0  0  0  0
    2.6290    2.6240   20.1670 C   0  0  0  0  0  0  0  0  0  0  0  0
    3.1130    1.9980   21.3400 C   0  0  0  0  0  0  0  0  0  0  0  0
    4.1400    1.0910   21.2720 C   0  0  0  0  0  0  0  0  0  0  0  0
    4.7550    0.7660   20.0280 C   0  0  0  0  0  0  0  0  0  0  0  0
    4.5020    0.6210   22.1800 H   0  0  0  0  0  0  0  0  0  0  0  0
    2.6760    2.2500   22.3040 H   0  0  0  0  0  0  0  0  0  0  0  0
    1.8230    3.3530   20.2400 H   0  0  0  0  0  0  0  0  0  0  0  0
    2.8170    2.7790   18.0400 H   0  0  0  0  0  0  0  0  0  0  0  0
    4.4190    1.4610   16.7000 H   0  0  0  0  0  0  0  0  0  0  0  0
    7.0420   -1.1940   18.4250 H   0  0  0  0  0  0  0  0  0  0  0  0
    7.1070   -0.0910   21.9750 C   0  0  0  0  0  0  0  0  0  0  0  0
    7.2830    1.1100   21.9740 O   0  0  0  0  0  0  0  0  0  0  0  0
    7.5000   -1.0780   23.0900 C   0  0  1  0  0  0  0  0  0  0  0  0
    6.5580   -0.7990   24.2830 C   0  0  0  0  0  0  0  0  0  0  0  0
    6.9780   -1.4790   25.4970 N   0  0  0  0  0  0  0  0  0  0  0  0
    5.9970   -1.9220   26.4760 C   0  0  0  0  0  0  0  0  0  0  0  0
    6.0070   -3.3880   26.6840 C   0  0  0  0  0  0  0  0  0  0  0  0
    5.9820   -4.5370   26.8310 N   0  0  0  0  0  0  0  0  0  0  0  0
    6.1670   -1.4470   27.4480 H   0  0  0  0  0  0  0  0  0  0  0  0
    5.0020   -1.6330   26.1290 H   0  0  0  0  0  0  0  0  0  0  0  0
    8.2880   -1.5310   25.8790 C   0  0  0  0  0  0  0  0  0  0  0  0
    8.6010   -1.9620   26.9730 O   0  0  0  0  0  0  0  0  0  0  0  0
    9.3000   -1.0940   24.8730 C   0  0  0  0  0  0  0  0  0  0  0  0
   10.6360   -0.9990   25.2680 C   0  0  0  0  0  0  0  0  0  0  0  0
   11.6220   -0.6890   24.3510 C   0  0  0  0  0  0  0  0  0  0  0  0
   11.2390   -0.4990   23.0300 C   0  0  0  0  0  0  0  0  0  0  0  0
   12.1860   -0.2030   22.1270 F   0  0  0  0  0  0  0  0  0  0  0  0
    9.9300   -0.6050   22.6070 C   0  0  0  0  0  0  0  0  0  0  0  0
    8.9310   -0.8880   23.5420 C   0  0  0  0  0  0  0  0  0  0  0  0
    9.6980   -0.4490   21.5600 H   0  0  0  0  0  0  0  0  0  0  0  0
   12.6710   -0.6000   24.6160 H   0  0  0  0  0  0  0  0  0  0  0  0
   10.8850   -1.1950   26.3040 H   0  0  0  0  0  0  0  0  0  0  0  0
    6.5440    0.2930   24.4200 H   0  0  0  0  0  0  0  0  0  0  0  0
    5.5470   -1.1500   24.0430 H   0  0  0  0  0  0  0  0  0  0  0  0
    6.5380   -2.7800   20.3580 H   0  0  0  0  0  0  0  0  0  0  0  0
    5.2730   -2.4610   21.5350 H   0  0  0  0  0  0  0  0  0  0  0  0
    8.2700   -2.7270   21.9760 H   0  0  0  0  0  0  0  0  0  0  0  0
    7.5510   -3.7820   24.1370 H   0  0  0  0  0  0  0  0  0  0  0  0
    6.7950   -4.5740   22.7380 H   0  0  0  0  0  0  0  0  0  0  0  0
    5.8630   -3.4510   23.7460 H   0  0  0  0  0  0  0  0  0  0  0  0
  1  2  1  0  0  0  0
  1 48  1  0  0  0  0
  1 49  1  0  0  0  0
  1 50  1  0  0  0  0
  2  3  1  0  0  0  0
  2 23  1  0  0  0  0
  2 47  1  6  0  0  0
  3  4  1  0  0  0  0
  3 45  1  0  0  0  0
  3 46  1  0  0  0  0
  4  5  1  0  0  0  0
  4 21  1  0  0  0  0
  5  6  2  0  0  0  0
  5 14  1  0  0  0  0
  6  7  1  0  0  0  0
  6 20  1  0  0  0  0
  7  8  2  0  0  0  0
  8  9  1  0  0  0  0
  8 19  1  0  0  0  0
  9 10  2  0  0  0  0
  9 14  1  0  0  0  0
 10 11  1  0  0  0  0
 10 18  1  0  0  0  0
 11 12  2  0  0  0  0
 11 17  1  0  0  0  0
 12 13  1  0  0  0  0
 12 16  1  0  0  0  0
 13 14  2  0  0  0  0
 13 15  1  0  0  0  0
 21 22  2  0  0  0  0
 23 21  1  6  0  0  0
 23 24  1  0  0  0  0
 23 39  1  0  0  0  0
 24 25  1  0  0  0  0
 24 43  1  0  0  0  0
 24 44  1  0  0  0  0
 25 26  1  0  0  0  0
 25 31  1  0  0  0  0
 26 27  1  0  0  0  0
 26 29  1  0  0  0  0
 26 30  1  0  0  0  0
 27 28  3  0  0  0  0
 31 32  2  0  0  0  0
 31 33  1  0  0  0  0
 33 34  2  0  0  0  0
 33 39  1  0  0  0  0
 34 35  1  0  0  0  0
 34 42  1  0  0  0  0
 35 36  2  0  0  0  0
 35 41  1  0  0  0  0
 36 37  1  0  0  0  0
 36 38  1  0  0  0  0
 38 39  2  0  0  0  0
 38 40  1  0  0  0  0
M  END
>  <MODEL>
       2

$$$$
best_conformers_5.pdb
 OpenBabel02042510453D

 50 54  0  0  1  0  0  0  0  0999 V2000
    9.5510   -1.3620   22.2300 C   0  0  0  0  0  0  0  0  0  0  0  0
    8.0680   -1.2770   22.6300 C   0  0  1  0  0  0  0  0  0  0  0  0
    7.3560   -0.1460   21.8470 C   0  0  0  0  0  0  0  0  0  0  0  0
    6.4330   -0.8260   20.9610 N   0  0  0  0  0  0  0  0  0  0  0  0
    5.8130   -0.2010   19.8440 C   0  0  0  0  0  0  0  0  0  0  0  0
    6.2590   -0.4660   18.5720 C   0  0  0  0  0  0  0  0  0  0  0  0
    5.7820    0.1310   17.4490 N   0  0  0  0  0  0  0  0  0  0  0  0
    4.8130    1.0030   17.5980 C   0  0  0  0  0  0  0  0  0  0  0  0
    4.2420    1.3610   18.8530 C   0  0  0  0  0  0  0  0  0  0  0  0
    3.1870    2.3070   18.9550 C   0  0  0  0  0  0  0  0  0  0  0  0
    2.6500    2.6200   20.1740 C   0  0  0  0  0  0  0  0  0  0  0  0
    3.1400    2.0000   21.3440 C   0  0  0  0  0  0  0  0  0  0  0  0
    4.1610    1.0830   21.2710 C   0  0  0  0  0  0  0  0  0  0  0  0
    4.7490    0.7450   20.0220 C   0  0  0  0  0  0  0  0  0  0  0  0
    4.5230    0.6080   22.1770 H   0  0  0  0  0  0  0  0  0  0  0  0
    2.7040    2.2490   22.3060 H   0  0  0  0  0  0  0  0  0  0  0  0
    1.8420    3.3440   20.2490 H   0  0  0  0  0  0  0  0  0  0  0  0
    2.8230    2.7780   18.0450 H   0  0  0  0  0  0  0  0  0  0  0  0
    4.4210    1.4720   16.6940 H   0  0  0  0  0  0  0  0  0  0  0  0
    7.0510   -1.1940   18.4030 H   0  0  0  0  0  0  0  0  0  0  0  0
    6.3420   -2.1860   21.1660 C   0  0  0  0  0  0  0  0  0  0  0  0
    5.6410   -2.9280   20.5140 O   0  0  0  0  0  0  0  0  0  0  0  0
    7.2100   -2.5660   22.3890 C   0  0  1  0  0  0  0  0  0  0  0  0
    8.0740   -3.8150   22.1190 C   0  0  0  0  0  0  0  0  0  0  0  0
    7.2700   -5.0220   22.0230 N   0  0  0  0  0  0  0  0  0  0  0  0
    7.4050   -5.9770   20.9590 C   0  0  0  0  0  0  0  0  0  0  0  0
    6.2300   -6.0140   20.0650 C   0  0  0  0  0  0  0  0  0  0  0  0
    5.3760   -6.1150   19.2930 N   0  0  0  0  0  0  0  0  0  0  0  0
    7.5080   -6.9620   21.4210 H   0  0  0  0  0  0  0  0  0  0  0  0
    8.3070   -5.7140   20.4030 H   0  0  0  0  0  0  0  0  0  0  0  0
    6.3460   -5.3590   22.9690 C   0  0  0  0  0  0  0  0  0  0  0  0
    5.8860   -6.4910   23.0590 O   0  0  0  0  0  0  0  0  0  0  0  0
    5.8990   -4.2390   23.8260 C   0  0  0  0  0  0  0  0  0  0  0  0
    5.0100   -4.5680   24.8440 C   0  0  0  0  0  0  0  0  0  0  0  0
    4.4710   -3.5680   25.6260 C   0  0  0  0  0  0  0  0  0  0  0  0
    4.8260   -2.2520   25.3420 C   0  0  0  0  0  0  0  0  0  0  0  0
    4.2860   -1.2700   26.0870 F   0  0  0  0  0  0  0  0  0  0  0  0
    5.7050   -1.9080   24.3330 C   0  0  0  0  0  0  0  0  0  0  0  0
    6.2830   -2.9180   23.5580 C   0  0  0  0  0  0  0  0  0  0  0  0
    5.9190   -0.8570   24.1660 H   0  0  0  0  0  0  0  0  0  0  0  0
    3.7800   -3.7780   26.4320 H   0  0  0  0  0  0  0  0  0  0  0  0
    4.7640   -5.6210   24.9650 H   0  0  0  0  0  0  0  0  0  0  0  0
    8.6320   -3.6860   21.1930 H   0  0  0  0  0  0  0  0  0  0  0  0
    8.8040   -3.9050   22.9390 H   0  0  0  0  0  0  0  0  0  0  0  0
    8.0640    0.4560   21.2640 H   0  0  0  0  0  0  0  0  0  0  0  0
    6.8290    0.5420   22.5210 H   0  0  0  0  0  0  0  0  0  0  0  0
    8.0540   -1.0630   23.7050 H   0  0  0  0  0  0  0  0  0  0  0  0
   10.0460   -0.4070   22.4360 H   0  0  0  0  0  0  0  0  0  0  0  0
   10.0850   -2.1250   22.8030 H   0  0  0  0  0  0  0  0  0  0  0  0
    9.6780   -1.5790   21.1640 H   0  0  0  0  0  0  0  0  0  0  0  0
  1  2  1  0  0  0  0
  1 48  1  0  0  0  0
  1 49  1  0  0  0  0
  1 50  1  0  0  0  0
  2  3  1  0  0  0  0
  2 23  1  0  0  0  0
  2 47  1  1  0  0  0
  3  4  1  0  0  0  0
  3 45  1  0  0  0  0
  3 46  1  0  0  0  0
  4  5  1  0  0  0  0
  4 21  1  0  0  0  0
  5  6  2  0  0  0  0
  5 14  1  0  0  0  0
  6  7  1  0  0  0  0
  6 20  1  0  0  0  0
  7  8  2  0  0  0  0
  8  9  1  0  0  0  0
  8 19  1  0  0  0  0
  9 10  2  0  0  0  0
  9 14  1  0  0  0  0
 10 11  1  0  0  0  0
 10 18  1  0  0  0  0
 11 12  2  0  0  0  0
 11 17  1  0  0  0  0
 12 13  1  0  0  0  0
 12 16  1  0  0  0  0
 13 14  2  0  0  0  0
 13 15  1  0  0  0  0
 21 22  2  0  0  0  0
 23 21  1  6  0  0  0
 23 24  1  0  0  0  0
 23 39  1  0  0  0  0
 24 25  1  0  0  0  0
 24 43  1  0  0  0  0
 24 44  1  0  0  0  0
 25 26  1  0  0  0  0
 25 31  1  0  0  0  0
 26 27  1  0  0  0  0
 26 29  1  0  0  0  0
 26 30  1  0  0  0  0
 27 28  3  0  0  0  0
 31 32  2  0  0  0  0
 31 33  1  0  0  0  0
 33 34  2  0  0  0  0
 33 39  1  0  0  0  0
 34 35  1  0  0  0  0
 34 42  1  0  0  0  0
 35 36  2  0  0  0  0
 35 41  1  0  0  0  0
 36 37  1  0  0  0  0
 36 38  1  0  0  0  0
 38 39  2  0  0  0  0
 38 40  1  0  0  0  0
M  END
>  <MODEL>
       3

$$$$
best_conformers_5.pdb
 OpenBabel02042510453D

 50 54  0  0  1  0  0  0  0  0999 V2000
    8.9890   -2.6990   22.1620 C   0  0  0  0  0  0  0  0  0  0  0  0
    7.9810   -1.6170   22.5670 C   0  0  1  0  0  0  0  0  0  0  0  0
    7.7520   -0.6220   21.4040 C   0  0  0  0  0  0  0  0  0  0  0  0
    6.3990   -0.8760   20.9560 N   0  0  0  0  0  0  0  0  0  0  0  0
    5.8050   -0.2040   19.8570 C   0  0  0  0  0  0  0  0  0  0  0  0
    6.2670   -0.4530   18.5890 C   0  0  0  0  0  0  0  0  0  0  0  0
    5.7860    0.1240   17.4600 N   0  0  0  0  0  0  0  0  0  0  0  0
    4.8130    0.9950   17.6080 C   0  0  0  0  0  0  0  0  0  0  0  0
    4.2440    1.3540   18.8650 C   0  0  0  0  0  0  0  0  0  0  0  0
    3.1990    2.3120   18.9570 C   0  0  0  0  0  0  0  0  0  0  0  0
    2.6870    2.6660   20.1740 C   0  0  0  0  0  0  0  0  0  0  0  0
    3.1990    2.0840   21.3530 C   0  0  0  0  0  0  0  0  0  0  0  0
    4.2060    1.1540   21.2960 C   0  0  0  0  0  0  0  0  0  0  0  0
    4.7510    0.7520   20.0410 C   0  0  0  0  0  0  0  0  0  0  0  0
    4.5980    0.7290   22.2190 H   0  0  0  0  0  0  0  0  0  0  0  0
    2.7880    2.3740   22.3140 H   0  0  0  0  0  0  0  0  0  0  0  0
    1.8840    3.3940   20.2420 H   0  0  0  0  0  0  0  0  0  0  0  0
    2.8260    2.7650   18.0410 H   0  0  0  0  0  0  0  0  0  0  0  0
    4.4180    1.4600   16.7010 H   0  0  0  0  0  0  0  0  0  0  0  0
    7.0570   -1.1880   18.4430 H   0  0  0  0  0  0  0  0  0  0  0  0
    5.6890   -1.7510   21.7460 C   0  0  0  0  0  0  0  0  0  0  0  0
    4.5650   -2.1330   21.5110 O   0  0  0  0  0  0  0  0  0  0  0  0
    6.5520   -2.1310   22.9640 C   0  0  1  0  0  0  0  0  0  0  0  0
    6.5010   -3.6590   23.1900 C   0  0  0  0  0  0  0  0  0  0  0  0
    5.1990   -4.0980   23.6660 N   0  0  0  0  0  0  0  0  0  0  0  0
    4.6010   -5.3210   23.1860 C   0  0  0  0  0  0  0  0  0  0  0  0
    3.2810   -5.1660   22.5490 C   0  0  0  0  0  0  0  0  0  0  0  0
    2.2010   -5.1750   22.1370 N   0  0  0  0  0  0  0  0  0  0  0  0
    4.4360   -5.9860   24.0350 H   0  0  0  0  0  0  0  0  0  0  0  0
    5.2990   -5.7960   22.4960 H   0  0  0  0  0  0  0  0  0  0  0  0
    4.5790   -3.4860   24.7270 C   0  0  0  0  0  0  0  0  0  0  0  0
    3.6720   -4.0190   25.3560 O   0  0  0  0  0  0  0  0  0  0  0  0
    5.0580   -2.1050   25.0410 C   0  0  0  0  0  0  0  0  0  0  0  0
    4.5070   -1.4710   26.1560 C   0  0  0  0  0  0  0  0  0  0  0  0
    4.8490   -0.1620   26.4480 C   0  0  0  0  0  0  0  0  0  0  0  0
    5.7310    0.5020   25.6020 C   0  0  0  0  0  0  0  0  0  0  0  0
    6.0490    1.7830   25.8720 F   0  0  0  0  0  0  0  0  0  0  0  0
    6.2860   -0.1070   24.4920 C   0  0  0  0  0  0  0  0  0  0  0  0
    5.9740   -1.4450   24.2080 C   0  0  0  0  0  0  0  0  0  0  0  0
    6.9580    0.4760   23.8700 H   0  0  0  0  0  0  0  0  0  0  0  0
    4.4370    0.3620   27.3010 H   0  0  0  0  0  0  0  0  0  0  0  0
    3.8000   -2.0370   26.7620 H   0  0  0  0  0  0  0  0  0  0  0  0
    6.7070   -4.1670   22.2440 H   0  0  0  0  0  0  0  0  0  0  0  0
    7.2870   -3.9110   23.9220 H   0  0  0  0  0  0  0  0  0  0  0  0
    7.8540    0.4250   21.7230 H   0  0  0  0  0  0  0  0  0  0  0  0
    8.4610   -0.7840   20.5840 H   0  0  0  0  0  0  0  0  0  0  0  0
    8.4080   -1.0990   23.4340 H   0  0  0  0  0  0  0  0  0  0  0  0
    9.2000   -3.3860   22.9840 H   0  0  0  0  0  0  0  0  0  0  0  0
    8.6380   -3.2790   21.3050 H   0  0  0  0  0  0  0  0  0  0  0  0
    9.9380   -2.2340   21.8830 H   0  0  0  0  0  0  0  0  0  0  0  0
  1  2  1  0  0  0  0
  1 48  1  0  0  0  0
  1 49  1  0  0  0  0
  1 50  1  0  0  0  0
  2  3  1  0  0  0  0
  2 23  1  0  0  0  0
  2 47  1  1  0  0  0
  3  4  1  0  0  0  0
  3 45  1  0  0  0  0
  3 46  1  0  0  0  0
  4  5  1  0  0  0  0
  4 21  1  0  0  0  0
  5  6  2  0  0  0  0
  5 14  1  0  0  0  0
  6  7  1  0  0  0  0
  6 20  1  0  0  0  0
  7  8  2  0  0  0  0
  8  9  1  0  0  0  0
  8 19  1  0  0  0  0
  9 10  2  0  0  0  0
  9 14  1  0  0  0  0
 10 11  1  0  0  0  0
 10 18  1  0  0  0  0
 11 12  2  0  0  0  0
 11 17  1  0  0  0  0
 12 13  1  0  0  0  0
 12 16  1  0  0  0  0
 13 14  2  0  0  0  0
 13 15  1  0  0  0  0
 21 22  2  0  0  0  0
 23 21  1  6  0  0  0
 23 24  1  0  0  0  0
 23 39  1  0  0  0  0
 24 25  1  0  0  0  0
 24 43  1  0  0  0  0
 24 44  1  0  0  0  0
 25 26  1  0  0  0  0
 25 31  1  0  0  0  0
 26 27  1  0  0  0  0
 26 29  1  0  0  0  0
 26 30  1  0  0  0  0
 27 28  3  0  0  0  0
 31 32  2  0  0  0  0
 31 33  1  0  0  0  0
 33 34  2  0  0  0  0
 33 39  1  0  0  0  0
 34 35  1  0  0  0  0
 34 42  1  0  0  0  0
 35 36  2  0  0  0  0
 35 41  1  0  0  0  0
 36 37  1  0  0  0  0
 36 38  1  0  0  0  0
 38 39  2  0  0  0  0
 38 40  1  0  0  0  0
M  END
>  <MODEL>
       4

$$$$
best_conformers_5.pdb
 OpenBabel02042510453D

 50 54  0  0  1  0  0  0  0  0999 V2000
    6.8480   -3.6390   23.3000 C   0  0  0  0  0  0  0  0  0  0  0  0
    7.2920   -2.4740   22.4040 C   0  0  1  0  0  0  0  0  0  0  0  0
    6.3090   -2.2060   21.2520 C   0  0  0  0  0  0  0  0  0  0  0  0
    6.4600   -0.7860   20.9780 N   0  0  0  0  0  0  0  0  0  0  0  0
    5.8490   -0.1500   19.8660 C   0  0  0  0  0  0  0  0  0  0  0  0
    6.2580   -0.4560   18.5890 C   0  0  0  0  0  0  0  0  0  0  0  0
    5.7670    0.1170   17.4650 N   0  0  0  0  0  0  0  0  0  0  0  0
    4.8050    0.9980   17.6070 C   0  0  0  0  0  0  0  0  0  0  0  0
    4.2390    1.3660   18.8590 C   0  0  0  0  0  0  0  0  0  0  0  0
    3.1780    2.3110   18.9520 C   0  0  0  0  0  0  0  0  0  0  0  0
    2.6290    2.6230   20.1680 C   0  0  0  0  0  0  0  0  0  0  0  0
    3.1120    1.9980   21.3400 C   0  0  0  0  0  0  0  0  0  0  0  0
    4.1410    1.0900   21.2720 C   0  0  0  0  0  0  0  0  0  0  0  0
    4.7550    0.7660   20.0280 C   0  0  0  0  0  0  0  0  0  0  0  0
    4.5020    0.6220   22.1810 H   0  0  0  0  0  0  0  0  0  0  0  0
    2.6750    2.2510   22.3050 H   0  0  0  0  0  0  0  0  0  0  0  0
    1.8230    3.3540   20.2400 H   0  0  0  0  0  0  0  0  0  0  0  0
    2.8170    2.7790   18.0400 H   0  0  0  0  0  0  0  0  0  0  0  0
    4.4200    1.4600   16.7010 H   0  0  0  0  0  0  0  0  0  0  0  0
    7.0420   -1.1950   18.4250 H   0  0  0  0  0  0  0  0  0  0  0  0
    7.1080   -0.0900   21.9770 C   0  0  0  0  0  0  0  0  0  0  0  0
    7.2800    1.1120   21.9720 O   0  0  0  0  0  0  0  0  0  0  0  0
    7.5050   -1.0770   23.0870 C   0  0  1  0  0  0  0  0  0  0  0  0
    6.5790   -0.8110   24.2910 C   0  0  0  0  0  0  0  0  0  0  0  0
    7.0030   -1.5420   25.4710 N   0  0  0  0  0  0  0  0  0  0  0  0
    6.0240   -2.0870   26.3950 C   0  0  0  0  0  0  0  0  0  0  0  0
    5.7580   -1.2290   27.5700 C   0  0  0  0  0  0  0  0  0  0  0  0
    5.5010   -0.6050   28.5100 N   0  0  0  0  0  0  0  0  0  0  0  0
    6.3600   -3.0610   26.7700 H   0  0  0  0  0  0  0  0  0  0  0  0
    5.0810   -2.2300   25.8620 H   0  0  0  0  0  0  0  0  0  0  0  0
    8.3130   -1.5830   25.8610 C   0  0  0  0  0  0  0  0  0  0  0  0
    8.6300   -2.0410   26.9450 O   0  0  0  0  0  0  0  0  0  0  0  0
    9.3140   -1.0960   24.8650 C   0  0  0  0  0  0  0  0  0  0  0  0
   10.6460   -0.9910   25.2600 C   0  0  0  0  0  0  0  0  0  0  0  0
   11.6290   -0.6740   24.3410 C   0  0  0  0  0  0  0  0  0  0  0  0
   11.2420   -0.4850   23.0220 C   0  0  0  0  0  0  0  0  0  0  0  0
   12.1850   -0.1830   22.1150 F   0  0  0  0  0  0  0  0  0  0  0  0
    9.9320   -0.5950   22.6000 C   0  0  0  0  0  0  0  0  0  0  0  0
    8.9360   -0.8830   23.5370 C   0  0  0  0  0  0  0  0  0  0  0  0
    9.6980   -0.4400   21.5540 H   0  0  0  0  0  0  0  0  0  0  0  0
   12.6800   -0.5820   24.6020 H   0  0  0  0  0  0  0  0  0  0  0  0
   10.9000   -1.1940   26.2930 H   0  0  0  0  0  0  0  0  0  0  0  0
    6.5960    0.2730   24.4760 H   0  0  0  0  0  0  0  0  0  0  0  0
    5.5560   -1.1180   24.0560 H   0  0  0  0  0  0  0  0  0  0  0  0
    5.2740   -2.4620   21.5320 H   0  0  0  0  0  0  0  0  0  0  0  0
    6.5390   -2.7780   20.3550 H   0  0  0  0  0  0  0  0  0  0  0  0
    8.2730   -2.7310   21.9760 H   0  0  0  0  0  0  0  0  0  0  0  0
    6.7900   -4.5780   22.7320 H   0  0  0  0  0  0  0  0  0  0  0  0
    7.5420   -3.7890   24.1350 H   0  0  0  0  0  0  0  0  0  0  0  0
    5.8550   -3.4520   23.7300 H   0  0  0  0  0  0  0  0  0  0  0  0
  1  2  1  0  0  0  0
  1 48  1  0  0  0  0
  1 49  1  0  0  0  0
  1 50  1  0  0  0  0
  2  3  1  0  0  0  0
  2 23  1  0  0  0  0
  2 47  1  6  0  0  0
  3  4  1  0  0  0  0
  3 45  1  0  0  0  0
  3 46  1  0  0  0  0
  4  5  1  0  0  0  0
  4 21  1  0  0  0  0
  5  6  2  0  0  0  0
  5 14  1  0  0  0  0
  6  7  1  0  0  0  0
  6 20  1  0  0  0  0
  7  8  2  0  0  0  0
  8  9  1  0  0  0  0
  8 19  1  0  0  0  0
  9 10  2  0  0  0  0
  9 14  1  0  0  0  0
 10 11  1  0  0  0  0
 10 18  1  0  0  0  0
 11 12  2  0  0  0  0
 11 17  1  0  0  0  0
 12 13  1  0  0  0  0
 12 16  1  0  0  0  0
 13 14  2  0  0  0  0
 13 15  1  0  0  0  0
 21 22  2  0  0  0  0
 23 21  1  6  0  0  0
 23 24  1  0  0  0  0
 23 39  1  0  0  0  0
 24 25  1  0  0  0  0
 24 43  1  0  0  0  0
 24 44  1  0  0  0  0
 25 26  1  0  0  0  0
 25 31  1  0  0  0  0
 26 27  1  0  0  0  0
 26 29  1  0  0  0  0
 26 30  1  0  0  0  0
 27 28  3  0  0  0  0
 31 32  2  0  0  0  0
 31 33  1  0  0  0  0
 33 34  2  0  0  0  0
 33 39  1  0  0  0  0
 34 35  1  0  0  0  0
 34 42  1  0  0  0  0
 35 36  2  0  0  0  0
 35 41  1  0  0  0  0
 36 37  1  0  0  0  0
 36 38  1  0  0  0  0
 38 39  2  0  0  0  0
 38 40  1  0  0  0  0
M  END
>  <MODEL>
       5

$$$$
best_conformers_5.pdb
 OpenBabel02042510453D

 50 54  0  0  1  0  0  0  0  0999 V2000
    6.1410   -2.9490   23.4510 C   0  0  0  0  0  0  0  0  0  0  0  0
    7.2240   -2.4020   22.5250 C   0  0  1  0  0  0  0  0  0  0  0  0
    6.7140   -2.1370   21.1030 C   0  0  0  0  0  0  0  0  0  0  0  0
    6.4030   -0.7220   21.0830 N   0  0  0  0  0  0  0  0  0  0  0  0
    5.8230   -0.1270   19.9340 C   0  0  0  0  0  0  0  0  0  0  0  0
    6.2580   -0.4550   18.6720 C   0  0  0  0  0  0  0  0  0  0  0  0
    5.7960    0.0980   17.5230 N   0  0  0  0  0  0  0  0  0  0  0  0
    4.8330    0.9830   17.6310 C   0  0  0  0  0  0  0  0  0  0  0  0
    4.2450    1.3710   18.8690 C   0  0  0  0  0  0  0  0  0  0  0  0
    3.1860    2.3170   18.9300 C   0  0  0  0  0  0  0  0  0  0  0  0
    2.6160    2.6400   20.1320 C   0  0  0  0  0  0  0  0  0  0  0  0
    3.0720    2.0340   21.3250 C   0  0  0  0  0  0  0  0  0  0  0  0
    4.1020    1.1270   21.2930 C   0  0  0  0  0  0  0  0  0  0  0  0
    4.7310    0.7910   20.0620 C   0  0  0  0  0  0  0  0  0  0  0  0
    4.4490    0.6600   22.2090 H   0  0  0  0  0  0  0  0  0  0  0  0
    2.6060    2.2960   22.2720 H   0  0  0  0  0  0  0  0  0  0  0  0
    1.8100    3.3680   20.1810 H   0  0  0  0  0  0  0  0  0  0  0  0
    2.8410    2.7790   18.0070 H   0  0  0  0  0  0  0  0  0  0  0  0
    4.4640    1.4290   16.7060 H   0  0  0  0  0  0  0  0  0  0  0  0
    7.0460   -1.1930   18.5380 H   0  0  0  0  0  0  0  0  0  0  0  0
    7.2460   -0.0330   21.9460 C   0  0  0  0  0  0  0  0  0  0  0  0
    7.4190    1.1660   21.9270 O   0  0  0  0  0  0  0  0  0  0  0  0
    7.8850   -1.0360   22.9280 C   0  0  1  0  0  0  0  0  0  0  0  0
    7.5650   -0.5500   24.3660 C   0  0  0  0  0  0  0  0  0  0  0  0
    8.2520   -1.3520   25.3700 N   0  0  0  0  0  0  0  0  0  0  0  0
    7.7210   -1.4610   26.7150 C   0  0  0  0  0  0  0  0  0  0  0  0
    6.3430   -1.9530   26.7450 C   0  0  0  0  0  0  0  0  0  0  0  0
    5.2670   -2.3690   26.8060 N   0  0  0  0  0  0  0  0  0  0  0  0
    7.7910   -0.5100   27.2570 H   0  0  0  0  0  0  0  0  0  0  0  0
    8.3560   -2.1800   27.2320 H   0  0  0  0  0  0  0  0  0  0  0  0
    9.6040   -1.5540   25.2760 C   0  0  0  0  0  0  0  0  0  0  0  0
   10.2800   -1.8990   26.2370 O   0  0  0  0  0  0  0  0  0  0  0  0
   10.1860   -1.3590   23.9190 C   0  0  0  0  0  0  0  0  0  0  0  0
   11.5660   -1.5050   23.8290 C   0  0  0  0  0  0  0  0  0  0  0  0
   12.1880   -1.6560   22.6150 C   0  0  0  0  0  0  0  0  0  0  0  0
   11.4200   -1.5390   21.4730 C   0  0  0  0  0  0  0  0  0  0  0  0
   12.0880   -1.6630   20.3120 F   0  0  0  0  0  0  0  0  0  0  0  0
   10.0580   -1.2620   21.5270 C   0  0  0  0  0  0  0  0  0  0  0  0
    9.4080   -1.1490   22.7760 C   0  0  0  0  0  0  0  0  0  0  0  0
    9.5350   -1.2090   20.5810 H   0  0  0  0  0  0  0  0  0  0  0  0
   13.2450   -1.8790   22.5370 H   0  0  0  0  0  0  0  0  0  0  0  0
   12.1250   -1.4900   24.7540 H   0  0  0  0  0  0  0  0  0  0  0  0
    7.8580    0.5060   24.4470 H   0  0  0  0  0  0  0  0  0  0  0  0
    6.4920   -0.6070   24.5530 H   0  0  0  0  0  0  0  0  0  0  0  0
    5.8370   -2.7330   20.8330 H   0  0  0  0  0  0  0  0  0  0  0  0
    7.5300   -2.3310   20.4030 H   0  0  0  0  0  0  0  0  0  0  0  0
    8.0080   -3.1670   22.4990 H   0  0  0  0  0  0  0  0  0  0  0  0
    5.7810   -3.9070   23.0560 H   0  0  0  0  0  0  0  0  0  0  0  0
    6.5590   -3.1380   24.4440 H   0  0  0  0  0  0  0  0  0  0  0  0
    5.2890   -2.2690   23.5480 H   0  0  0  0  0  0  0  0  0  0  0  0
  1  2  1  0  0  0  0
  1 48  1  0  0  0  0
  1 49  1  0  0  0  0
  1 50  1  0  0  0  0
  2  3  1  0  0  0  0
  2 23  1  0  0  0  0
  2 47  1  6  0  0  0
  3  4  1  0  0  0  0
  3 45  1  0  0  0  0
  3 46  1  0  0  0  0
  4  5  1  0  0  0  0
  4 21  1  0  0  0  0
  5  6  2  0  0  0  0
  5 14  1  0  0  0  0
  6  7  1  0  0  0  0
  6 20  1  0  0  0  0
  7  8  2  0  0  0  0
  8  9  1  0  0  0  0
  8 19  1  0  0  0  0
  9 10  2  0  0  0  0
  9 14  1  0  0  0  0
 10 11  1  0  0  0  0
 10 18  1  0  0  0  0
 11 12  2  0  0  0  0
 11 17  1  0  0  0  0
 12 13  1  0  0  0  0
 12 16  1  0  0  0  0
 13 14  2  0  0  0  0
 13 15  1  0  0  0  0
 21 22  2  0  0  0  0
 23 21  1  6  0  0  0
 23 24  1  0  0  0  0
 23 39  1  0  0  0  0
 24 25  1  0  0  0  0
 24 43  1  0  0  0  0
 24 44  1  0  0  0  0
 25 26  1  0  0  0  0
 25 31  1  0  0  0  0
 26 27  1  0  0  0  0
 26 29  1  0  0  0  0
 26 30  1  0  0  0  0
 27 28  3  0  0  0  0
 31 32  2  0  0  0  0
 31 33  1  0  0  0  0
 33 34  2  0  0  0  0
 33 39  1  0  0  0  0
 34 35  1  0  0  0  0
 34 42  1  0  0  0  0
 35 36  2  0  0  0  0
 35 41  1  0  0  0  0
 36 37  1  0  0  0  0
 36 38  1  0  0  0  0
 38 39  2  0  0  0  0
 38 40  1  0  0  0  0
M  END
>  <MODEL>
       6

$$$$
best_conformers_5.pdb
 OpenBabel02042510453D

 50 54  0  0  1  0  0  0  0  0999 V2000
    6.0870   -2.7910   23.4000 C   0  0  0  0  0  0  0  0  0  0  0  0
    7.2600   -2.3950   22.4920 C   0  0  1  0  0  0  0  0  0  0  0  0
    6.7740   -2.1430   21.0600 C   0  0  0  0  0  0  0  0  0  0  0  0
    6.4470   -0.7300   21.0450 N   0  0  0  0  0  0  0  0  0  0  0  0
    5.8290   -0.1310   19.9150 C   0  0  0  0  0  0  0  0  0  0  0  0
    6.2500   -0.4590   18.6480 C   0  0  0  0  0  0  0  0  0  0  0  0
    5.7870    0.0960   17.5010 N   0  0  0  0  0  0  0  0  0  0  0  0
    4.8300    0.9850   17.6130 C   0  0  0  0  0  0  0  0  0  0  0  0
    4.2470    1.3710   18.8530 C   0  0  0  0  0  0  0  0  0  0  0  0
    3.1900    2.3180   18.8960 C   0  0  0  0  0  0  0  0  0  0  0  0
    2.6100    2.6500   20.0880 C   0  0  0  0  0  0  0  0  0  0  0  0
    3.0590    2.0500   21.2850 C   0  0  0  0  0  0  0  0  0  0  0  0
    4.0950    1.1450   21.2720 C   0  0  0  0  0  0  0  0  0  0  0  0
    4.7340    0.7920   20.0490 C   0  0  0  0  0  0  0  0  0  0  0  0
    4.4270    0.6940   22.2020 H   0  0  0  0  0  0  0  0  0  0  0  0
    2.5820    2.3160   22.2240 H   0  0  0  0  0  0  0  0  0  0  0  0
    1.8050    3.3790   20.1240 H   0  0  0  0  0  0  0  0  0  0  0  0
    2.8600    2.7730   17.9660 H   0  0  0  0  0  0  0  0  0  0  0  0
    4.4540    1.4370   16.6940 H   0  0  0  0  0  0  0  0  0  0  0  0
    7.0340   -1.2010   18.5060 H   0  0  0  0  0  0  0  0  0  0  0  0
    7.3630   -0.0500   21.8440 C   0  0  0  0  0  0  0  0  0  0  0  0
    7.5540    1.1460   21.8040 O   0  0  0  0  0  0  0  0  0  0  0  0
    8.0040   -1.0540   22.8400 C   0  0  1  0  0  0  0  0  0  0  0  0
    7.6920   -0.4930   24.2380 C   0  0  0  0  0  0  0  0  0  0  0  0
    8.3930   -1.2120   25.2730 N   0  0  0  0  0  0  0  0  0  0  0  0
    7.7830   -1.5630   26.5290 C   0  0  0  0  0  0  0  0  0  0  0  0
    7.4430   -2.9960   26.6500 C   0  0  0  0  0  0  0  0  0  0  0  0
    7.1770   -4.1160   26.7520 N   0  0  0  0  0  0  0  0  0  0  0  0
    6.9040   -0.9520   26.7410 H   0  0  0  0  0  0  0  0  0  0  0  0
    8.5550   -1.3580   27.2570 H   0  0  0  0  0  0  0  0  0  0  0  0
    9.7570   -1.3420   25.2270 C   0  0  0  0  0  0  0  0  0  0  0  0
   10.4320   -1.5160   26.2330 O   0  0  0  0  0  0  0  0  0  0  0  0
   10.3430   -1.3000   23.8710 C   0  0  0  0  0  0  0  0  0  0  0  0
   11.7270   -1.4820   23.8150 C   0  0  0  0  0  0  0  0  0  0  0  0
   12.3590   -1.6280   22.6040 C   0  0  0  0  0  0  0  0  0  0  0  0
   11.5590   -1.5810   21.4720 C   0  0  0  0  0  0  0  0  0  0  0  0
   12.2100   -1.7300   20.3110 F   0  0  0  0  0  0  0  0  0  0  0  0
   10.1810   -1.4040   21.4940 C   0  0  0  0  0  0  0  0  0  0  0  0
    9.5340   -1.2090   22.7280 C   0  0  0  0  0  0  0  0  0  0  0  0
    9.6550   -1.4190   20.5440 H   0  0  0  0  0  0  0  0  0  0  0  0
   13.4170   -1.8580   22.4990 H   0  0  0  0  0  0  0  0  0  0  0  0
   12.2680   -1.5470   24.7540 H   0  0  0  0  0  0  0  0  0  0  0  0
    7.9690    0.5670   24.2140 H   0  0  0  0  0  0  0  0  0  0  0  0
    6.6220   -0.5490   24.4440 H   0  0  0  0  0  0  0  0  0  0  0  0
    5.9120   -2.7560   20.7810 H   0  0  0  0  0  0  0  0  0  0  0  0
    7.6170   -2.3130   20.3850 H   0  0  0  0  0  0  0  0  0  0  0  0
    7.9910   -3.2120   22.5210 H   0  0  0  0  0  0  0  0  0  0  0  0
    5.3030   -2.0230   23.4170 H   0  0  0  0  0  0  0  0  0  0  0  0
    5.6360   -3.7190   23.0250 H   0  0  0  0  0  0  0  0  0  0  0  0
    6.4250   -2.9780   24.4260 H   0  0  0  0  0  0  0  0  0  0  0  0
  1  2  1  0  0  0  0
  1 48  1  0  0  0  0
  1 49  1  0  0  0  0
  1 50  1  0  0  0  0
  2  3  1  0  0  0  0
  2 23  1  0  0  0  0
  2 47  1  6  0  0  0
  3  4  1  0  0  0  0
  3 45  1  0  0  0  0
  3 46  1  0  0  0  0
  4  5  1  0  0  0  0
  4 21  1  0  0  0  0
  5  6  2  0  0  0  0
  5 14  1  0  0  0  0
  6  7  1  0  0  0  0
  6 20  1  0  0  0  0
  7  8  2  0  0  0  0
  8  9  1  0  0  0  0
  8 19  1  0  0  0  0
  9 10  2  0  0  0  0
  9 14  1  0  0  0  0
 10 11  1  0  0  0  0
 10 18  1  0  0  0  0
 11 12  2  0  0  0  0
 11 17  1  0  0  0  0
 12 13  1  0  0  0  0
 12 16  1  0  0  0  0
 13 14  2  0  0  0  0
 13 15  1  0  0  0  0
 21 22  2  0  0  0  0
 23 21  1  6  0  0  0
 23 24  1  0  0  0  0
 23 39  1  0  0  0  0
 24 25  1  0  0  0  0
 24 43  1  0  0  0  0
 24 44  1  0  0  0  0
 25 26  1  0  0  0  0
 25 31  1  0  0  0  0
 26 27  1  0  0  0  0
 26 29  1  0  0  0  0
 26 30  1  0  0  0  0
 27 28  3  0  0  0  0
 31 32  2  0  0  0  0
 31 33  1  0  0  0  0
 33 34  2  0  0  0  0
 33 39  1  0  0  0  0
 34 35  1  0  0  0  0
 34 42  1  0  0  0  0
 35 36  2  0  0  0  0
 35 41  1  0  0  0  0
 36 37  1  0  0  0  0
 36 38  1  0  0  0  0
 38 39  2  0  0  0  0
 38 40  1  0  0  0  0
M  END
>  <MODEL>
       7

$$$$
best_conformers_5.pdb
 OpenBabel02042510453D

 50 54  0  0  1  0  0  0  0  0999 V2000
    9.2580   -2.3600   22.7480 C   0  0  0  0  0  0  0  0  0  0  0  0
    7.9370   -1.5990   22.6000 C   0  0  1  0  0  0  0  0  0  0  0  0
    7.8160   -0.9010   21.2280 C   0  0  0  0  0  0  0  0  0  0  0  0
    6.3830   -0.8530   20.9750 N   0  0  0  0  0  0  0  0  0  0  0  0
    5.8050   -0.1960   19.8600 C   0  0  0  0  0  0  0  0  0  0  0  0
    6.2600   -0.4550   18.5900 C   0  0  0  0  0  0  0  0  0  0  0  0
    5.7810    0.1250   17.4620 N   0  0  0  0  0  0  0  0  0  0  0  0
    4.8090    0.9980   17.6040 C   0  0  0  0  0  0  0  0  0  0  0  0
    4.2390    1.3620   18.8590 C   0  0  0  0  0  0  0  0  0  0  0  0
    3.1910    2.3200   18.9520 C   0  0  0  0  0  0  0  0  0  0  0  0
    2.6770    2.6690   20.1730 C   0  0  0  0  0  0  0  0  0  0  0  0
    3.1940    2.0860   21.3500 C   0  0  0  0  0  0  0  0  0  0  0  0
    4.2070    1.1620   21.2840 C   0  0  0  0  0  0  0  0  0  0  0  0
    4.7500    0.7610   20.0310 C   0  0  0  0  0  0  0  0  0  0  0  0
    4.6020    0.7250   22.1930 H   0  0  0  0  0  0  0  0  0  0  0  0
    2.7830    2.3710   22.3140 H   0  0  0  0  0  0  0  0  0  0  0  0
    1.8750    3.3990   20.2430 H   0  0  0  0  0  0  0  0  0  0  0  0
    2.8160    2.7740   18.0370 H   0  0  0  0  0  0  0  0  0  0  0  0
    4.4180    1.4590   16.6950 H   0  0  0  0  0  0  0  0  0  0  0  0
    7.0430   -1.1950   18.4320 H   0  0  0  0  0  0  0  0  0  0  0  0
    5.6790   -1.7740   21.7250 C   0  0  0  0  0  0  0  0  0  0  0  0
    4.5070   -2.0470   21.5580 O   0  0  0  0  0  0  0  0  0  0  0  0
    6.6270   -2.4300   22.7550 C   0  0  1  0  0  0  0  0  0  0  0  0
    6.8170   -3.8940   22.3250 C   0  0  0  0  0  0  0  0  0  0  0  0
    5.5700   -4.5900   22.4950 N   0  0  0  0  0  0  0  0  0  0  0  0
    5.0760   -5.4460   21.4640 C   0  0  0  0  0  0  0  0  0  0  0  0
    5.6430   -6.7870   21.7010 C   0  0  0  0  0  0  0  0  0  0  0  0
    6.2240   -7.7140   22.0730 N   0  0  0  0  0  0  0  0  0  0  0  0
    5.3860   -5.0360   20.4990 H   0  0  0  0  0  0  0  0  0  0  0  0
    3.9870   -5.4230   21.5110 H   0  0  0  0  0  0  0  0  0  0  0  0
    4.9870   -4.6950   23.7280 C   0  0  0  0  0  0  0  0  0  0  0  0
    4.2490   -5.6200   24.0340 O   0  0  0  0  0  0  0  0  0  0  0  0
    5.2690   -3.5360   24.6210 C   0  0  0  0  0  0  0  0  0  0  0  0
    4.6960   -3.5370   25.8940 C   0  0  0  0  0  0  0  0  0  0  0  0
    4.7580   -2.4010   26.6790 C   0  0  0  0  0  0  0  0  0  0  0  0
    5.3790   -1.2720   26.1540 C   0  0  0  0  0  0  0  0  0  0  0  0
    5.3960   -0.1450   26.8870 F   0  0  0  0  0  0  0  0  0  0  0  0
    5.9790   -1.2590   24.9110 C   0  0  0  0  0  0  0  0  0  0  0  0
    5.9830   -2.4260   24.1370 C   0  0  0  0  0  0  0  0  0  0  0  0
    6.4120   -0.3300   24.5580 H   0  0  0  0  0  0  0  0  0  0  0  0
    4.3130   -2.3540   27.6650 H   0  0  0  0  0  0  0  0  0  0  0  0
    4.1800   -4.4380   26.2180 H   0  0  0  0  0  0  0  0  0  0  0  0
    7.6170   -4.3640   22.9190 H   0  0  0  0  0  0  0  0  0  0  0  0
    7.0900   -3.9330   21.2690 H   0  0  0  0  0  0  0  0  0  0  0  0
    8.2300    0.1130   21.2420 H   0  0  0  0  0  0  0  0  0  0  0  0
    8.3440   -1.4720   20.4500 H   0  0  0  0  0  0  0  0  0  0  0  0
    7.8960   -0.8250   23.3700 H   0  0  0  0  0  0  0  0  0  0  0  0
    9.3840   -3.0950   21.9450 H   0  0  0  0  0  0  0  0  0  0  0  0
    9.3200   -2.8970   23.7010 H   0  0  0  0  0  0  0  0  0  0  0  0
   10.1090   -1.6730   22.6970 H   0  0  0  0  0  0  0  0  0  0  0  0
  1  2  1  0  0  0  0
  1 48  1  0  0  0  0
  1 49  1  0  0  0  0
  1 50  1  0  0  0  0
  2  3  1  0  0  0  0
  2 23  1  0  0  0  0
  2 47  1  1  0  0  0
  3  4  1  0  0  0  0
  3 45  1  0  0  0  0
  3 46  1  0  0  0  0
  4  5  1  0  0  0  0
  4 21  1  0  0  0  0
  5  6  2  0  0  0  0
  5 14  1  0  0  0  0
  6  7  1  0  0  0  0
  6 20  1  0  0  0  0
  7  8  2  0  0  0  0
  8  9  1  0  0  0  0
  8 19  1  0  0  0  0
  9 10  2  0  0  0  0
  9 14  1  0  0  0  0
 10 11  1  0  0  0  0
 10 18  1  0  0  0  0
 11 12  2  0  0  0  0
 11 17  1  0  0  0  0
 12 13  1  0  0  0  0
 12 16  1  0  0  0  0
 13 14  2  0  0  0  0
 13 15  1  0  0  0  0
 21 22  2  0  0  0  0
 23 21  1  6  0  0  0
 23 24  1  0  0  0  0
 23 39  1  0  0  0  0
 24 25  1  0  0  0  0
 24 43  1  0  0  0  0
 24 44  1  0  0  0  0
 25 26  1  0  0  0  0
 25 31  1  0  0  0  0
 26 27  1  0  0  0  0
 26 29  1  0  0  0  0
 26 30  1  0  0  0  0
 27 28  3  0  0  0  0
 31 32  2  0  0  0  0
 31 33  1  0  0  0  0
 33 34  2  0  0  0  0
 33 39  1  0  0  0  0
 34 35  1  0  0  0  0
 34 42  1  0  0  0  0
 35 36  2  0  0  0  0
 35 41  1  0  0  0  0
 36 37  1  0  0  0  0
 36 38  1  0  0  0  0
 38 39  2  0  0  0  0
 38 40  1  0  0  0  0
M  END
>  <MODEL>
       8

$$$$
