best_conformers_82.pdb
 OpenBabel02042510453D

 55 60  0  0  1  0  0  0  0  0999 V2000
    8.9970   -2.7060   22.1630 C   0  0  0  0  0  0  0  0  0  0  0  0
    7.9820   -1.6240   22.5710 C   0  0  1  0  0  0  0  0  0  0  0  0
    7.7540   -0.6270   21.4040 C   0  0  0  0  0  0  0  0  0  0  0  0
    6.3950   -0.8740   20.9600 N   0  0  0  0  0  0  0  0  0  0  0  0
    5.8030   -0.2070   19.8540 C   0  0  0  0  0  0  0  0  0  0  0  0
    6.2560   -0.4590   18.5850 C   0  0  0  0  0  0  0  0  0  0  0  0
    5.7810    0.1310   17.4600 N   0  0  0  0  0  0  0  0  0  0  0  0
    4.8080    1.0000   17.6080 C   0  0  0  0  0  0  0  0  0  0  0  0
    4.2380    1.3620   18.8610 C   0  0  0  0  0  0  0  0  0  0  0  0
    3.1910    2.3210   18.9570 C   0  0  0  0  0  0  0  0  0  0  0  0
    2.6780    2.6700   20.1750 C   0  0  0  0  0  0  0  0  0  0  0  0
    3.2000    2.0860   21.3540 C   0  0  0  0  0  0  0  0  0  0  0  0
    4.2120    1.1610   21.2900 C   0  0  0  0  0  0  0  0  0  0  0  0
    4.7500    0.7540   20.0330 C   0  0  0  0  0  0  0  0  0  0  0  0
    4.6010    0.7230   22.2080 H   0  0  0  0  0  0  0  0  0  0  0  0
    2.7860    2.3710   22.3170 H   0  0  0  0  0  0  0  0  0  0  0  0
    1.8760    3.4010   20.2470 H   0  0  0  0  0  0  0  0  0  0  0  0
    2.8170    2.7740   18.0400 H   0  0  0  0  0  0  0  0  0  0  0  0
    4.4150    1.4600   16.7000 H   0  0  0  0  0  0  0  0  0  0  0  0
    7.0490   -1.1890   18.4290 H   0  0  0  0  0  0  0  0  0  0  0  0
    5.6840   -1.7410   21.7570 C   0  0  0  0  0  0  0  0  0  0  0  0
    4.5500   -2.1130   21.5320 O   0  0  0  0  0  0  0  0  0  0  0  0
    6.5540   -2.1330   22.9710 C   0  0  1  0  0  0  0  0  0  0  0  0
    6.4780   -3.6620   23.1990 C   0  0  0  0  0  0  0  0  0  0  0  0
    5.1620   -4.0680   23.6520 N   0  0  0  0  0  0  0  0  0  0  0  0
    4.5860   -5.2880   23.1310 C   0  0  0  0  0  0  0  0  0  0  0  0
    5.1530   -6.5280   23.7620 C   0  0  0  0  0  0  0  0  0  0  0  0
    6.2240   -7.1550   23.3990 N   0  0  0  0  0  0  0  0  0  0  0  0
    6.3330   -8.2010   24.3070 C   0  0  0  0  0  0  0  0  0  0  0  0
    5.2980   -8.1420   25.1740 C   0  0  0  0  0  0  0  0  0  0  0  0
    4.5280   -7.0690   24.8240 O   0  0  0  0  0  0  0  0  0  0  0  0
    4.9590   -8.7020   26.0310 H   0  0  0  0  0  0  0  0  0  0  0  0
    7.1630   -8.8910   24.2430 H   0  0  0  0  0  0  0  0  0  0  0  0
    4.8160   -5.3170   22.0610 H   0  0  0  0  0  0  0  0  0  0  0  0
    3.5050   -5.2470   23.2750 H   0  0  0  0  0  0  0  0  0  0  0  0
    4.5800   -3.4840   24.7410 C   0  0  0  0  0  0  0  0  0  0  0  0
    3.6960   -4.0380   25.3780 O   0  0  0  0  0  0  0  0  0  0  0  0
    5.0800   -2.1090   25.0620 C   0  0  0  0  0  0  0  0  0  0  0  0
    4.5490   -1.4720   26.1840 C   0  0  0  0  0  0  0  0  0  0  0  0
    4.8820   -0.1630   26.4700 C   0  0  0  0  0  0  0  0  0  0  0  0
    5.7470    0.4970   25.6060 C   0  0  0  0  0  0  0  0  0  0  0  0
    6.0540    1.7800   25.8690 F   0  0  0  0  0  0  0  0  0  0  0  0
    6.2970   -0.1120   24.4960 C   0  0  0  0  0  0  0  0  0  0  0  0
    5.9930   -1.4520   24.2230 C   0  0  0  0  0  0  0  0  0  0  0  0
    6.9450    0.4860   23.8630 H   0  0  0  0  0  0  0  0  0  0  0  0
    4.4810    0.3670   27.3250 H   0  0  0  0  0  0  0  0  0  0  0  0
    3.8510   -2.0320   26.7980 H   0  0  0  0  0  0  0  0  0  0  0  0
    6.6780   -4.1890   22.2640 H   0  0  0  0  0  0  0  0  0  0  0  0
    7.2380   -3.9490   23.9430 H   0  0  0  0  0  0  0  0  0  0  0  0
    7.8790    0.4210   21.7190 H   0  0  0  0  0  0  0  0  0  0  0  0
    8.4610   -0.7970   20.5830 H   0  0  0  0  0  0  0  0  0  0  0  0
    8.4170   -1.1040   23.4330 H   0  0  0  0  0  0  0  0  0  0  0  0
    9.9480   -2.2400   21.8800 H   0  0  0  0  0  0  0  0  0  0  0  0
    9.2060   -3.4000   22.9820 H   0  0  0  0  0  0  0  0  0  0  0  0
    8.6450   -3.2890   21.3060 H   0  0  0  0  0  0  0  0  0  0  0  0
  1  2  1  0  0  0  0
  1 53  1  0  0  0  0
  1 54  1  0  0  0  0
  1 55  1  0  0  0  0
  2  3  1  0  0  0  0
  2 23  1  0  0  0  0
  2 52  1  1  0  0  0
  3  4  1  0  0  0  0
  3 50  1  0  0  0  0
  3 51  1  0  0  0  0
  4  5  1  0  0  0  0
  4 21  1  0  0  0  0
  5  6  2  0  0  0  0
  5 14  1  0  0  0  0
  6  7  1  0  0  0  0
  6 20  1  0  0  0  0
  7  8  2  0  0  0  0
  8  9  1  0  0  0  0
  8 19  1  0  0  0  0
  9 10  2  0  0  0  0
  9 14  1  0  0  0  0
 10 11  1  0  0  0  0
 10 18  1  0  0  0  0
 11 12  2  0  0  0  0
 11 17  1  0  0  0  0
 12 13  1  0  0  0  0
 12 16  1  0  0  0  0
 13 14  2  0  0  0  0
 13 15  1  0  0  0  0
 21 22  2  0  0  0  0
 23 21  1  6  0  0  0
 23 24  1  0  0  0  0
 23 44  1  0  0  0  0
 24 25  1  0  0  0  0
 24 48  1  0  0  0  0
 24 49  1  0  0  0  0
 25 26  1  0  0  0  0
 25 36  1  0  0  0  0
 26 27  1  0  0  0  0
 26 34  1  0  0  0  0
 26 35  1  0  0  0  0
 27 28  2  0  0  0  0
 27 31  1  0  0  0  0
 28 29  1  0  0  0  0
 29 30  2  0  0  0  0
 29 33  1  0  0  0  0
 30 31  1  0  0  0  0
 30 32  1  0  0  0  0
 36 37  2  0  0  0  0
 36 38  1  0  0  0  0
 38 39  2  0  0  0  0
 38 44  1  0  0  0  0
 39 40  1  0  0  0  0
 39 47  1  0  0  0  0
 40 41  2  0  0  0  0
 40 46  1  0  0  0  0
 41 42  1  0  0  0  0
 41 43  1  0  0  0  0
 43 44  2  0  0  0  0
 43 45  1  0  0  0  0
M  END
>  <MODEL>
       1

$$$$
best_conformers_82.pdb
 OpenBabel02042510453D

 55 60  0  0  1  0  0  0  0  0999 V2000
    8.9980   -2.7030   22.1640 C   0  0  0  0  0  0  0  0  0  0  0  0
    7.9830   -1.6220   22.5710 C   0  0  1  0  0  0  0  0  0  0  0  0
    7.7540   -0.6250   21.4050 C   0  0  0  0  0  0  0  0  0  0  0  0
    6.3960   -0.8740   20.9590 N   0  0  0  0  0  0  0  0  0  0  0  0
    5.8030   -0.2070   19.8540 C   0  0  0  0  0  0  0  0  0  0  0  0
    6.2560   -0.4590   18.5850 C   0  0  0  0  0  0  0  0  0  0  0  0
    5.7810    0.1310   17.4590 N   0  0  0  0  0  0  0  0  0  0  0  0
    4.8080    1.0000   17.6080 C   0  0  0  0  0  0  0  0  0  0  0  0
    4.2390    1.3620   18.8610 C   0  0  0  0  0  0  0  0  0  0  0  0
    3.1910    2.3210   18.9570 C   0  0  0  0  0  0  0  0  0  0  0  0
    2.6780    2.6690   20.1750 C   0  0  0  0  0  0  0  0  0  0  0  0
    3.1990    2.0850   21.3540 C   0  0  0  0  0  0  0  0  0  0  0  0
    4.2120    1.1610   21.2900 C   0  0  0  0  0  0  0  0  0  0  0  0
    4.7500    0.7540   20.0330 C   0  0  0  0  0  0  0  0  0  0  0  0
    4.6010    0.7230   22.2080 H   0  0  0  0  0  0  0  0  0  0  0  0
    2.7860    2.3700   22.3170 H   0  0  0  0  0  0  0  0  0  0  0  0
    1.8760    3.4010   20.2470 H   0  0  0  0  0  0  0  0  0  0  0  0
    2.8170    2.7740   18.0400 H   0  0  0  0  0  0  0  0  0  0  0  0
    4.4150    1.4600   16.7000 H   0  0  0  0  0  0  0  0  0  0  0  0
    7.0490   -1.1890   18.4290 H   0  0  0  0  0  0  0  0  0  0  0  0
    5.6850   -1.7430   21.7560 C   0  0  0  0  0  0  0  0  0  0  0  0
    4.5520   -2.1150   21.5300 O   0  0  0  0  0  0  0  0  0  0  0  0
    6.5560   -2.1330   22.9710 C   0  0  1  0  0  0  0  0  0  0  0  0
    6.4860   -3.6620   23.1980 C   0  0  0  0  0  0  0  0  0  0  0  0
    5.1740   -4.0770   23.6510 N   0  0  0  0  0  0  0  0  0  0  0  0
    4.6020   -5.2960   23.1220 C   0  0  0  0  0  0  0  0  0  0  0  0
    5.0930   -6.5410   23.8080 C   0  0  0  0  0  0  0  0  0  0  0  0
    4.5370   -7.1500   24.8000 N   0  0  0  0  0  0  0  0  0  0  0  0
    5.3990   -8.1950   25.0960 C   0  0  0  0  0  0  0  0  0  0  0  0
    6.4350   -8.1700   24.2300 C   0  0  0  0  0  0  0  0  0  0  0  0
    6.2470   -7.1040   23.3910 O   0  0  0  0  0  0  0  0  0  0  0  0
    7.3190   -8.7580   24.0500 H   0  0  0  0  0  0  0  0  0  0  0  0
    5.1930   -8.8490   25.9310 H   0  0  0  0  0  0  0  0  0  0  0  0
    4.8190   -5.3340   22.0490 H   0  0  0  0  0  0  0  0  0  0  0  0
    3.5250   -5.2440   23.2810 H   0  0  0  0  0  0  0  0  0  0  0  0
    4.5800   -3.4830   24.7290 C   0  0  0  0  0  0  0  0  0  0  0  0
    3.6760   -4.0180   25.3590 O   0  0  0  0  0  0  0  0  0  0  0  0
    5.0810   -2.1100   25.0570 C   0  0  0  0  0  0  0  0  0  0  0  0
    4.5460   -1.4760   26.1790 C   0  0  0  0  0  0  0  0  0  0  0  0
    4.8770   -0.1670   26.4680 C   0  0  0  0  0  0  0  0  0  0  0  0
    5.7410    0.4960   25.6060 C   0  0  0  0  0  0  0  0  0  0  0  0
    6.0470    1.7780   25.8700 F   0  0  0  0  0  0  0  0  0  0  0  0
    6.2940   -0.1110   24.4960 C   0  0  0  0  0  0  0  0  0  0  0  0
    5.9940   -1.4520   24.2210 C   0  0  0  0  0  0  0  0  0  0  0  0
    6.9420    0.4870   23.8630 H   0  0  0  0  0  0  0  0  0  0  0  0
    4.4730    0.3610   27.3230 H   0  0  0  0  0  0  0  0  0  0  0  0
    3.8470   -2.0360   26.7920 H   0  0  0  0  0  0  0  0  0  0  0  0
    7.2460   -3.9500   23.9420 H   0  0  0  0  0  0  0  0  0  0  0  0
    6.6830   -4.1890   22.2630 H   0  0  0  0  0  0  0  0  0  0  0  0
    7.8770    0.4230   21.7200 H   0  0  0  0  0  0  0  0  0  0  0  0
    8.4610   -0.7940   20.5840 H   0  0  0  0  0  0  0  0  0  0  0  0
    8.4160   -1.1020   23.4350 H   0  0  0  0  0  0  0  0  0  0  0  0
    9.9490   -2.2360   21.8820 H   0  0  0  0  0  0  0  0  0  0  0  0
    8.6470   -3.2860   21.3070 H   0  0  0  0  0  0  0  0  0  0  0  0
    9.2080   -3.3960   22.9830 H   0  0  0  0  0  0  0  0  0  0  0  0
  1  2  1  0  0  0  0
  1 53  1  0  0  0  0
  1 54  1  0  0  0  0
  1 55  1  0  0  0  0
  2  3  1  0  0  0  0
  2 23  1  0  0  0  0
  2 52  1  1  0  0  0
  3  4  1  0  0  0  0
  3 50  1  0  0  0  0
  3 51  1  0  0  0  0
  4  5  1  0  0  0  0
  4 21  1  0  0  0  0
  5  6  2  0  0  0  0
  5 14  1  0  0  0  0
  6  7  1  0  0  0  0
  6 20  1  0  0  0  0
  7  8  2  0  0  0  0
  8  9  1  0  0  0  0
  8 19  1  0  0  0  0
  9 10  2  0  0  0  0
  9 14  1  0  0  0  0
 10 11  1  0  0  0  0
 10 18  1  0  0  0  0
 11 12  2  0  0  0  0
 11 17  1  0  0  0  0
 12 13  1  0  0  0  0
 12 16  1  0  0  0  0
 13 14  2  0  0  0  0
 13 15  1  0  0  0  0
 21 22  2  0  0  0  0
 23 21  1  6  0  0  0
 23 24  1  0  0  0  0
 23 44  1  0  0  0  0
 24 25  1  0  0  0  0
 24 48  1  0  0  0  0
 24 49  1  0  0  0  0
 25 26  1  0  0  0  0
 25 36  1  0  0  0  0
 26 27  1  0  0  0  0
 26 34  1  0  0  0  0
 26 35  1  0  0  0  0
 27 28  2  0  0  0  0
 27 31  1  0  0  0  0
 28 29  1  0  0  0  0
 29 30  2  0  0  0  0
 29 33  1  0  0  0  0
 30 31  1  0  0  0  0
 30 32  1  0  0  0  0
 36 37  2  0  0  0  0
 36 38  1  0  0  0  0
 38 39  2  0  0  0  0
 38 44  1  0  0  0  0
 39 40  1  0  0  0  0
 39 47  1  0  0  0  0
 40 41  2  0  0  0  0
 40 46  1  0  0  0  0
 41 42  1  0  0  0  0
 41 43  1  0  0  0  0
 43 44  2  0  0  0  0
 43 45  1  0  0  0  0
M  END
>  <MODEL>
       2

$$$$
best_conformers_82.pdb
 OpenBabel02042510453D

 55 60  0  0  1  0  0  0  0  0999 V2000
    6.8170   -3.6360   23.3100 C   0  0  0  0  0  0  0  0  0  0  0  0
    7.2670   -2.4800   22.4090 C   0  0  1  0  0  0  0  0  0  0  0  0
    6.2940   -2.2070   21.2520 C   0  0  0  0  0  0  0  0  0  0  0  0
    6.4530   -0.7890   20.9750 N   0  0  0  0  0  0  0  0  0  0  0  0
    5.8470   -0.1510   19.8640 C   0  0  0  0  0  0  0  0  0  0  0  0
    6.2610   -0.4570   18.5920 C   0  0  0  0  0  0  0  0  0  0  0  0
    5.7720    0.1150   17.4640 N   0  0  0  0  0  0  0  0  0  0  0  0
    4.8090    0.9950   17.6110 C   0  0  0  0  0  0  0  0  0  0  0  0
    4.2420    1.3650   18.8620 C   0  0  0  0  0  0  0  0  0  0  0  0
    3.1800    2.3080   18.9550 C   0  0  0  0  0  0  0  0  0  0  0  0
    2.6290    2.6220   20.1670 C   0  0  0  0  0  0  0  0  0  0  0  0
    3.1120    1.9970   21.3410 C   0  0  0  0  0  0  0  0  0  0  0  0
    4.1390    1.0910   21.2750 C   0  0  0  0  0  0  0  0  0  0  0  0
    4.7560    0.7650   20.0340 C   0  0  0  0  0  0  0  0  0  0  0  0
    4.4980    0.6240   22.1870 H   0  0  0  0  0  0  0  0  0  0  0  0
    2.6730    2.2500   22.3020 H   0  0  0  0  0  0  0  0  0  0  0  0
    1.8250    3.3510   20.2370 H   0  0  0  0  0  0  0  0  0  0  0  0
    2.8220    2.7760   18.0390 H   0  0  0  0  0  0  0  0  0  0  0  0
    4.4220    1.4560   16.7020 H   0  0  0  0  0  0  0  0  0  0  0  0
    7.0450   -1.1960   18.4330 H   0  0  0  0  0  0  0  0  0  0  0  0
    7.0940   -0.0920   21.9760 C   0  0  0  0  0  0  0  0  0  0  0  0
    7.2800    1.1100   21.9670 O   0  0  0  0  0  0  0  0  0  0  0  0
    7.4750   -1.0800   23.0940 C   0  0  1  0  0  0  0  0  0  0  0  0
    6.5290   -0.8020   24.2870 C   0  0  0  0  0  0  0  0  0  0  0  0
    6.9370   -1.5250   25.4800 N   0  0  0  0  0  0  0  0  0  0  0  0
    5.9280   -1.9610   26.4280 C   0  0  0  0  0  0  0  0  0  0  0  0
    5.4510   -0.8650   27.3360 C   0  0  0  0  0  0  0  0  0  0  0  0
    4.5340    0.0080   27.0690 N   0  0  0  0  0  0  0  0  0  0  0  0
    4.4790    0.8100   28.2020 C   0  0  0  0  0  0  0  0  0  0  0  0
    5.3710    0.3520   29.1070 C   0  0  0  0  0  0  0  0  0  0  0  0
    5.9980   -0.7310   28.5600 O   0  0  0  0  0  0  0  0  0  0  0  0
    5.6900    0.6260   30.1010 H   0  0  0  0  0  0  0  0  0  0  0  0
    3.8110    1.6610   28.2410 H   0  0  0  0  0  0  0  0  0  0  0  0
    6.3450   -2.7820   27.0140 H   0  0  0  0  0  0  0  0  0  0  0  0
    5.0600   -2.3010   25.8580 H   0  0  0  0  0  0  0  0  0  0  0  0
    8.2400   -1.5520   25.8900 C   0  0  0  0  0  0  0  0  0  0  0  0
    8.5530   -1.9730   26.9890 O   0  0  0  0  0  0  0  0  0  0  0  0
    9.2580   -1.0910   24.9010 C   0  0  0  0  0  0  0  0  0  0  0  0
   10.5850   -0.9820   25.3160 C   0  0  0  0  0  0  0  0  0  0  0  0
   11.5800   -0.6790   24.4040 C   0  0  0  0  0  0  0  0  0  0  0  0
   11.2200   -0.5040   23.0730 C   0  0  0  0  0  0  0  0  0  0  0  0
   12.1820   -0.2200   22.1810 F   0  0  0  0  0  0  0  0  0  0  0  0
    9.9140   -0.6100   22.6350 C   0  0  0  0  0  0  0  0  0  0  0  0
    8.9040   -0.8820   23.5640 C   0  0  0  0  0  0  0  0  0  0  0  0
    9.6980   -0.4670   21.5820 H   0  0  0  0  0  0  0  0  0  0  0  0
   12.6240   -0.5940   24.6840 H   0  0  0  0  0  0  0  0  0  0  0  0
   10.8080   -1.1740   26.3600 H   0  0  0  0  0  0  0  0  0  0  0  0
    5.5020   -1.1070   24.0400 H   0  0  0  0  0  0  0  0  0  0  0  0
    6.5530    0.2840   24.4600 H   0  0  0  0  0  0  0  0  0  0  0  0
    5.2560   -2.4430   21.5350 H   0  0  0  0  0  0  0  0  0  0  0  0
    6.5240   -2.7830   20.3570 H   0  0  0  0  0  0  0  0  0  0  0  0
    8.2510   -2.7310   21.9870 H   0  0  0  0  0  0  0  0  0  0  0  0
    7.5060   -3.7810   24.1480 H   0  0  0  0  0  0  0  0  0  0  0  0
    6.7620   -4.5730   22.7460 H   0  0  0  0  0  0  0  0  0  0  0  0
    5.8230   -3.4460   23.7320 H   0  0  0  0  0  0  0  0  0  0  0  0
  1  2  1  0  0  0  0
  1 53  1  0  0  0  0
  1 54  1  0  0  0  0
  1 55  1  0  0  0  0
  2  3  1  0  0  0  0
  2 23  1  0  0  0  0
  2 52  1  6  0  0  0
  3  4  1  0  0  0  0
  3 50  1  0  0  0  0
  3 51  1  0  0  0  0
  4  5  1  0  0  0  0
  4 21  1  0  0  0  0
  5  6  2  0  0  0  0
  5 14  1  0  0  0  0
  6  7  1  0  0  0  0
  6 20  1  0  0  0  0
  7  8  2  0  0  0  0
  8  9  1  0  0  0  0
  8 19  1  0  0  0  0
  9 10  2  0  0  0  0
  9 14  1  0  0  0  0
 10 11  1  0  0  0  0
 10 18  1  0  0  0  0
 11 12  2  0  0  0  0
 11 17  1  0  0  0  0
 12 13  1  0  0  0  0
 12 16  1  0  0  0  0
 13 14  2  0  0  0  0
 13 15  1  0  0  0  0
 21 22  2  0  0  0  0
 23 21  1  6  0  0  0
 23 24  1  0  0  0  0
 23 44  1  0  0  0  0
 24 25  1  0  0  0  0
 24 48  1  0  0  0  0
 24 49  1  0  0  0  0
 25 26  1  0  0  0  0
 25 36  1  0  0  0  0
 26 27  1  0  0  0  0
 26 34  1  0  0  0  0
 26 35  1  0  0  0  0
 27 28  2  0  0  0  0
 27 31  1  0  0  0  0
 28 29  1  0  0  0  0
 29 30  2  0  0  0  0
 29 33  1  0  0  0  0
 30 31  1  0  0  0  0
 30 32  1  0  0  0  0
 36 37  2  0  0  0  0
 36 38  1  0  0  0  0
 38 39  2  0  0  0  0
 38 44  1  0  0  0  0
 39 40  1  0  0  0  0
 39 47  1  0  0  0  0
 40 41  2  0  0  0  0
 40 46  1  0  0  0  0
 41 42  1  0  0  0  0
 41 43  1  0  0  0  0
 43 44  2  0  0  0  0
 43 45  1  0  0  0  0
M  END
>  <MODEL>
       3

$$$$
best_conformers_82.pdb
 OpenBabel02042510453D

 55 60  0  0  1  0  0  0  0  0999 V2000
    6.8170   -3.6350   23.3100 C   0  0  0  0  0  0  0  0  0  0  0  0
    7.2670   -2.4790   22.4090 C   0  0  1  0  0  0  0  0  0  0  0  0
    6.2920   -2.2060   21.2520 C   0  0  0  0  0  0  0  0  0  0  0  0
    6.4520   -0.7890   20.9740 N   0  0  0  0  0  0  0  0  0  0  0  0
    5.8470   -0.1510   19.8630 C   0  0  0  0  0  0  0  0  0  0  0  0
    6.2610   -0.4570   18.5920 C   0  0  0  0  0  0  0  0  0  0  0  0
    5.7720    0.1150   17.4640 N   0  0  0  0  0  0  0  0  0  0  0  0
    4.8090    0.9950   17.6110 C   0  0  0  0  0  0  0  0  0  0  0  0
    4.2420    1.3650   18.8620 C   0  0  0  0  0  0  0  0  0  0  0  0
    3.1800    2.3080   18.9550 C   0  0  0  0  0  0  0  0  0  0  0  0
    2.6290    2.6220   20.1670 C   0  0  0  0  0  0  0  0  0  0  0  0
    3.1120    1.9970   21.3410 C   0  0  0  0  0  0  0  0  0  0  0  0
    4.1400    1.0910   21.2750 C   0  0  0  0  0  0  0  0  0  0  0  0
    4.7560    0.7650   20.0340 C   0  0  0  0  0  0  0  0  0  0  0  0
    4.4990    0.6240   22.1860 H   0  0  0  0  0  0  0  0  0  0  0  0
    2.6730    2.2510   22.3020 H   0  0  0  0  0  0  0  0  0  0  0  0
    1.8260    3.3510   20.2370 H   0  0  0  0  0  0  0  0  0  0  0  0
    2.8220    2.7760   18.0390 H   0  0  0  0  0  0  0  0  0  0  0  0
    4.4230    1.4560   16.7020 H   0  0  0  0  0  0  0  0  0  0  0  0
    7.0450   -1.1960   18.4330 H   0  0  0  0  0  0  0  0  0  0  0  0
    7.0960   -0.0910   21.9710 C   0  0  0  0  0  0  0  0  0  0  0  0
    7.2830    1.1110   21.9610 O   0  0  0  0  0  0  0  0  0  0  0  0
    7.4770   -1.0770   23.0900 C   0  0  1  0  0  0  0  0  0  0  0  0
    6.5340   -0.7940   24.2850 C   0  0  0  0  0  0  0  0  0  0  0  0
    6.9380   -1.5080   25.4830 N   0  0  0  0  0  0  0  0  0  0  0  0
    5.9270   -1.9460   26.4280 C   0  0  0  0  0  0  0  0  0  0  0  0
    5.5120   -0.8880   27.4120 C   0  0  0  0  0  0  0  0  0  0  0  0
    5.9320   -0.7210   28.6200 N   0  0  0  0  0  0  0  0  0  0  0  0
    5.2710    0.4120   29.0710 C   0  0  0  0  0  0  0  0  0  0  0  0
    4.4510    0.8570   28.0950 C   0  0  0  0  0  0  0  0  0  0  0  0
    4.5940    0.0230   27.0210 O   0  0  0  0  0  0  0  0  0  0  0  0
    3.7510    1.6670   27.9660 H   0  0  0  0  0  0  0  0  0  0  0  0
    5.4780    0.8140   30.0560 H   0  0  0  0  0  0  0  0  0  0  0  0
    5.0470   -2.2900   25.8750 H   0  0  0  0  0  0  0  0  0  0  0  0
    6.3600   -2.7650   27.0030 H   0  0  0  0  0  0  0  0  0  0  0  0
    8.2460   -1.5580   25.8820 C   0  0  0  0  0  0  0  0  0  0  0  0
    8.5760   -2.0060   26.9680 O   0  0  0  0  0  0  0  0  0  0  0  0
    9.2610   -1.0890   24.8930 C   0  0  0  0  0  0  0  0  0  0  0  0
   10.5890   -0.9820   25.3070 C   0  0  0  0  0  0  0  0  0  0  0  0
   11.5840   -0.6820   24.3960 C   0  0  0  0  0  0  0  0  0  0  0  0
   11.2230   -0.5070   23.0640 C   0  0  0  0  0  0  0  0  0  0  0  0
   12.1850   -0.2240   22.1720 F   0  0  0  0  0  0  0  0  0  0  0  0
    9.9170   -0.6110   22.6280 C   0  0  0  0  0  0  0  0  0  0  0  0
    8.9070   -0.8800   23.5570 C   0  0  0  0  0  0  0  0  0  0  0  0
    9.6990   -0.4690   21.5750 H   0  0  0  0  0  0  0  0  0  0  0  0
   12.6290   -0.5980   24.6750 H   0  0  0  0  0  0  0  0  0  0  0  0
   10.8130   -1.1770   26.3510 H   0  0  0  0  0  0  0  0  0  0  0  0
    6.5580    0.2930   24.4550 H   0  0  0  0  0  0  0  0  0  0  0  0
    5.5060   -1.1010   24.0430 H   0  0  0  0  0  0  0  0  0  0  0  0
    5.2550   -2.4420   21.5360 H   0  0  0  0  0  0  0  0  0  0  0  0
    6.5220   -2.7840   20.3570 H   0  0  0  0  0  0  0  0  0  0  0  0
    8.2510   -2.7320   21.9860 H   0  0  0  0  0  0  0  0  0  0  0  0
    7.5070   -3.7820   24.1470 H   0  0  0  0  0  0  0  0  0  0  0  0
    6.7620   -4.5730   22.7450 H   0  0  0  0  0  0  0  0  0  0  0  0
    5.8230   -3.4470   23.7320 H   0  0  0  0  0  0  0  0  0  0  0  0
  1  2  1  0  0  0  0
  1 53  1  0  0  0  0
  1 54  1  0  0  0  0
  1 55  1  0  0  0  0
  2  3  1  0  0  0  0
  2 23  1  0  0  0  0
  2 52  1  6  0  0  0
  3  4  1  0  0  0  0
  3 50  1  0  0  0  0
  3 51  1  0  0  0  0
  4  5  1  0  0  0  0
  4 21  1  0  0  0  0
  5  6  2  0  0  0  0
  5 14  1  0  0  0  0
  6  7  1  0  0  0  0
  6 20  1  0  0  0  0
  7  8  2  0  0  0  0
  8  9  1  0  0  0  0
  8 19  1  0  0  0  0
  9 10  2  0  0  0  0
  9 14  1  0  0  0  0
 10 11  1  0  0  0  0
 10 18  1  0  0  0  0
 11 12  2  0  0  0  0
 11 17  1  0  0  0  0
 12 13  1  0  0  0  0
 12 16  1  0  0  0  0
 13 14  2  0  0  0  0
 13 15  1  0  0  0  0
 21 22  2  0  0  0  0
 23 21  1  6  0  0  0
 23 24  1  0  0  0  0
 23 44  1  0  0  0  0
 24 25  1  0  0  0  0
 24 48  1  0  0  0  0
 24 49  1  0  0  0  0
 25 26  1  0  0  0  0
 25 36  1  0  0  0  0
 26 27  1  0  0  0  0
 26 34  1  0  0  0  0
 26 35  1  0  0  0  0
 27 28  2  0  0  0  0
 27 31  1  0  0  0  0
 28 29  1  0  0  0  0
 29 30  2  0  0  0  0
 29 33  1  0  0  0  0
 30 31  1  0  0  0  0
 30 32  1  0  0  0  0
 36 37  2  0  0  0  0
 36 38  1  0  0  0  0
 38 39  2  0  0  0  0
 38 44  1  0  0  0  0
 39 40  1  0  0  0  0
 39 47  1  0  0  0  0
 40 41  2  0  0  0  0
 40 46  1  0  0  0  0
 41 42  1  0  0  0  0
 41 43  1  0  0  0  0
 43 44  2  0  0  0  0
 43 45  1  0  0  0  0
M  END
>  <MODEL>
       4

$$$$
