best_conformers_72.pdb
 OpenBabel02042510453D

 60 64  0  0  1  0  0  0  0  0999 V2000
    4.3190   -5.0500   26.5020 C   0  0  0  0  0  0  0  0  0  0  0  0
    4.7220   -3.7090   26.1270 N   0  0  0  0  0  0  0  0  0  0  0  0
    5.5630   -3.0250   26.9520 C   0  0  0  0  0  0  0  0  0  0  0  0
    6.0220   -3.5430   27.9580 O   0  0  0  0  0  0  0  0  0  0  0  0
    5.8750   -1.5820   26.5470 C   0  0  0  0  0  0  0  0  0  0  0  0
    6.8670   -1.4360   25.4870 N   0  0  0  0  0  0  0  0  0  0  0  0
    6.4670   -0.8310   24.2220 C   0  0  0  0  0  0  0  0  0  0  0  0
    7.4630   -1.1000   23.0740 C   0  0  2  0  0  0  0  0  0  0  0  0
    7.0910   -0.1210   21.9600 C   0  0  0  0  0  0  0  0  0  0  0  0
    7.2820    1.0810   21.9450 O   0  0  0  0  0  0  0  0  0  0  0  0
    6.4450   -0.8100   20.9640 N   0  0  0  0  0  0  0  0  0  0  0  0
    5.8360   -0.1640   19.8640 C   0  0  0  0  0  0  0  0  0  0  0  0
    6.2670   -0.4630   18.5970 C   0  0  0  0  0  0  0  0  0  0  0  0
    5.7910    0.1120   17.4670 N   0  0  0  0  0  0  0  0  0  0  0  0
    4.8220    0.9870   17.6140 C   0  0  0  0  0  0  0  0  0  0  0  0
    4.2570    1.3570   18.8670 C   0  0  0  0  0  0  0  0  0  0  0  0
    3.1970    2.2970   18.9550 C   0  0  0  0  0  0  0  0  0  0  0  0
    2.6400    2.6120   20.1620 C   0  0  0  0  0  0  0  0  0  0  0  0
    3.1150    1.9970   21.3430 C   0  0  0  0  0  0  0  0  0  0  0  0
    4.1440    1.0930   21.2900 C   0  0  0  0  0  0  0  0  0  0  0  0
    4.7590    0.7630   20.0450 C   0  0  0  0  0  0  0  0  0  0  0  0
    4.4950    0.6340   22.2120 H   0  0  0  0  0  0  0  0  0  0  0  0
    2.6650    2.2500   22.2990 H   0  0  0  0  0  0  0  0  0  0  0  0
    1.8340    3.3400   20.2260 H   0  0  0  0  0  0  0  0  0  0  0  0
    2.8420    2.7610   18.0390 H   0  0  0  0  0  0  0  0  0  0  0  0
    4.4270    1.4460   16.7090 H   0  0  0  0  0  0  0  0  0  0  0  0
    7.0640   -1.1980   18.4650 H   0  0  0  0  0  0  0  0  0  0  0  0
    6.2650   -2.2170   21.2470 C   0  0  0  0  0  0  0  0  0  0  0  0
    7.2660   -2.4880   22.3820 C   0  0  2  0  0  0  0  0  0  0  0  0
    6.8690   -3.6020   23.2330 N   0  0  0  0  0  0  0  0  0  0  0  0
    6.9150   -4.8780   22.7520 C   0  0  0  0  0  0  0  0  0  0  0  0
    7.2690   -5.1300   21.6110 O   0  0  0  0  0  0  0  0  0  0  0  0
    6.4770   -5.9600   23.7090 C   0  0  0  0  0  0  0  0  0  0  0  0
    6.9590   -5.8450   24.6840 H   0  0  0  0  0  0  0  0  0  0  0  0
    5.3930   -5.9210   23.8620 H   0  0  0  0  0  0  0  0  0  0  0  0
    6.7480   -6.9190   23.2680 H   0  0  0  0  0  0  0  0  0  0  0  0
    6.6770   -3.4470   24.2160 H   0  0  0  0  0  0  0  0  0  0  0  0
    8.2250   -2.7480   21.9160 H   0  0  0  0  0  0  0  0  0  0  0  0
    6.4650   -2.8240   20.3680 H   0  0  0  0  0  0  0  0  0  0  0  0
    5.2390   -2.4220   21.5710 H   0  0  0  0  0  0  0  0  0  0  0  0
    8.8740   -0.8800   23.5600 C   0  0  0  0  0  0  0  0  0  0  0  0
    9.9060   -0.5860   22.6580 C   0  0  0  0  0  0  0  0  0  0  0  0
   11.2120   -0.4850   23.1100 C   0  0  0  0  0  0  0  0  0  0  0  0
   12.4900   -0.1110   21.9830 Cl  0  0  0  0  0  0  0  0  0  0  0  0
   11.5310   -0.6730   24.4580 C   0  0  0  0  0  0  0  0  0  0  0  0
   10.5210   -0.9840   25.3480 C   0  0  0  0  0  0  0  0  0  0  0  0
    9.2080   -1.0890   24.8960 C   0  0  0  0  0  0  0  0  0  0  0  0
    8.1780   -1.5050   25.8840 C   0  0  0  0  0  0  0  0  0  0  0  0
    8.4890   -1.9090   26.9870 O   0  0  0  0  0  0  0  0  0  0  0  0
   10.7050   -1.1690   26.4050 H   0  0  0  0  0  0  0  0  0  0  0  0
   12.5610   -0.6000   24.7860 H   0  0  0  0  0  0  0  0  0  0  0  0
    9.6870   -0.4370   21.6070 H   0  0  0  0  0  0  0  0  0  0  0  0
    5.4890   -1.2360   23.9420 H   0  0  0  0  0  0  0  0  0  0  0  0
    6.3590    0.2590   24.3050 H   0  0  0  0  0  0  0  0  0  0  0  0
    4.9580   -1.1030   26.1970 H   0  0  0  0  0  0  0  0  0  0  0  0
    6.2420   -1.0890   27.4500 H   0  0  0  0  0  0  0  0  0  0  0  0
    4.2150   -3.2210   25.4070 H   0  0  0  0  0  0  0  0  0  0  0  0
    3.8670   -5.0670   27.4970 H   0  0  0  0  0  0  0  0  0  0  0  0
    5.2040   -5.6860   26.5500 H   0  0  0  0  0  0  0  0  0  0  0  0
    3.6110   -5.4470   25.7720 H   0  0  0  0  0  0  0  0  0  0  0  0
  1  2  1  0  0  0  0
  1 58  1  0  0  0  0
  1 59  1  0  0  0  0
  1 60  1  0  0  0  0
  2  3  1  0  0  0  0
  2 57  1  0  0  0  0
  3  4  2  0  0  0  0
  3  5  1  0  0  0  0
  5  6  1  0  0  0  0
  5 55  1  0  0  0  0
  5 56  1  0  0  0  0
  6  7  1  0  0  0  0
  6 48  1  0  0  0  0
  7  8  1  0  0  0  0
  7 53  1  0  0  0  0
  7 54  1  0  0  0  0
  8  9  1  6  0  0  0
  8 29  1  0  0  0  0
  8 41  1  0  0  0  0
  9 10  2  0  0  0  0
  9 11  1  0  0  0  0
 11 12  1  0  0  0  0
 11 28  1  0  0  0  0
 12 13  2  0  0  0  0
 12 21  1  0  0  0  0
 13 14  1  0  0  0  0
 13 27  1  0  0  0  0
 14 15  2  0  0  0  0
 15 16  1  0  0  0  0
 15 26  1  0  0  0  0
 16 17  2  0  0  0  0
 16 21  1  0  0  0  0
 17 18  1  0  0  0  0
 17 25  1  0  0  0  0
 18 19  2  0  0  0  0
 18 24  1  0  0  0  0
 19 20  1  0  0  0  0
 19 23  1  0  0  0  0
 20 21  2  0  0  0  0
 20 22  1  0  0  0  0
 28 29  1  0  0  0  0
 28 39  1  0  0  0  0
 28 40  1  0  0  0  0
 29 30  1  0  0  0  0
 29 38  1  6  0  0  0
 30 31  1  0  0  0  0
 30 37  1  0  0  0  0
 31 32  2  0  0  0  0
 31 33  1  0  0  0  0
 33 34  1  0  0  0  0
 33 35  1  0  0  0  0
 33 36  1  0  0  0  0
 41 42  2  0  0  0  0
 41 47  1  0  0  0  0
 42 43  1  0  0  0  0
 42 52  1  0  0  0  0
 43 44  1  0  0  0  0
 43 45  2  0  0  0  0
 45 46  1  0  0  0  0
 45 51  1  0  0  0  0
 46 47  2  0  0  0  0
 46 50  1  0  0  0  0
 47 48  1  0  0  0  0
 48 49  2  0  0  0  0
M  END
>  <MODEL>
       1

$$$$
best_conformers_72.pdb
 OpenBabel02042510453D

 60 64  0  0  1  0  0  0  0  0999 V2000
    5.4460    0.2670   29.4430 C   0  0  0  0  0  0  0  0  0  0  0  0
    5.8920   -0.8100   28.5740 N   0  0  0  0  0  0  0  0  0  0  0  0
    5.3780   -0.9120   27.3250 C   0  0  0  0  0  0  0  0  0  0  0  0
    4.4730   -0.1920   26.9270 O   0  0  0  0  0  0  0  0  0  0  0  0
    5.9650   -2.0120   26.4310 C   0  0  0  0  0  0  0  0  0  0  0  0
    6.9630   -1.5280   25.4990 N   0  0  0  0  0  0  0  0  0  0  0  0
    6.5430   -0.8080   24.3100 C   0  0  0  0  0  0  0  0  0  0  0  0
    7.4740   -1.0850   23.0990 C   0  0  2  0  0  0  0  0  0  0  0  0
    7.0960   -0.1070   21.9780 C   0  0  0  0  0  0  0  0  0  0  0  0
    7.2890    1.0910   21.9610 O   0  0  0  0  0  0  0  0  0  0  0  0
    6.4560   -0.8060   20.9810 N   0  0  0  0  0  0  0  0  0  0  0  0
    5.8460   -0.1630   19.8690 C   0  0  0  0  0  0  0  0  0  0  0  0
    6.2590   -0.4610   18.5960 C   0  0  0  0  0  0  0  0  0  0  0  0
    5.7730    0.1140   17.4660 N   0  0  0  0  0  0  0  0  0  0  0  0
    4.8090    0.9950   17.6110 C   0  0  0  0  0  0  0  0  0  0  0  0
    4.2430    1.3630   18.8640 C   0  0  0  0  0  0  0  0  0  0  0  0
    3.1810    2.3080   18.9560 C   0  0  0  0  0  0  0  0  0  0  0  0
    2.6310    2.6210   20.1670 C   0  0  0  0  0  0  0  0  0  0  0  0
    3.1140    1.9970   21.3400 C   0  0  0  0  0  0  0  0  0  0  0  0
    4.1400    1.0910   21.2760 C   0  0  0  0  0  0  0  0  0  0  0  0
    4.7560    0.7600   20.0360 C   0  0  0  0  0  0  0  0  0  0  0  0
    4.4990    0.6250   22.1870 H   0  0  0  0  0  0  0  0  0  0  0  0
    2.6750    2.2500   22.3010 H   0  0  0  0  0  0  0  0  0  0  0  0
    1.8270    3.3500   20.2370 H   0  0  0  0  0  0  0  0  0  0  0  0
    2.8220    2.7750   18.0400 H   0  0  0  0  0  0  0  0  0  0  0  0
    4.4210    1.4580   16.7020 H   0  0  0  0  0  0  0  0  0  0  0  0
    7.0450   -1.1970   18.4350 H   0  0  0  0  0  0  0  0  0  0  0  0
    6.2890   -2.2190   21.2660 C   0  0  0  0  0  0  0  0  0  0  0  0
    7.2400   -2.4960   22.4380 C   0  0  2  0  0  0  0  0  0  0  0  0
    6.7740   -3.5820   23.2800 N   0  0  0  0  0  0  0  0  0  0  0  0
    7.6370   -4.3340   24.0360 C   0  0  0  0  0  0  0  0  0  0  0  0
    8.8460   -4.2520   23.9310 O   0  0  0  0  0  0  0  0  0  0  0  0
    6.9990   -5.3150   25.0050 C   0  0  0  0  0  0  0  0  0  0  0  0
    6.8460   -6.2870   24.5260 H   0  0  0  0  0  0  0  0  0  0  0  0
    7.7080   -5.4470   25.8240 H   0  0  0  0  0  0  0  0  0  0  0  0
    6.0330   -4.9900   25.4080 H   0  0  0  0  0  0  0  0  0  0  0  0
    5.8000   -3.5850   23.5450 H   0  0  0  0  0  0  0  0  0  0  0  0
    8.2250   -2.8150   22.0830 H   0  0  0  0  0  0  0  0  0  0  0  0
    5.2520   -2.4480   21.5500 H   0  0  0  0  0  0  0  0  0  0  0  0
    6.5360   -2.8110   20.3900 H   0  0  0  0  0  0  0  0  0  0  0  0
    8.9140   -0.9010   23.5590 C   0  0  0  0  0  0  0  0  0  0  0  0
    9.9210   -0.6300   22.6210 C   0  0  0  0  0  0  0  0  0  0  0  0
   11.2380   -0.5270   23.0320 C   0  0  0  0  0  0  0  0  0  0  0  0
   12.4850   -0.1680   21.8750 Cl  0  0  0  0  0  0  0  0  0  0  0  0
   11.5970   -0.7060   24.3680 C   0  0  0  0  0  0  0  0  0  0  0  0
   10.6110   -1.0110   25.2890 C   0  0  0  0  0  0  0  0  0  0  0  0
    9.2810   -1.1210   24.8900 C   0  0  0  0  0  0  0  0  0  0  0  0
    8.2690   -1.5690   25.8930 C   0  0  0  0  0  0  0  0  0  0  0  0
    8.5880   -1.9840   26.9960 O   0  0  0  0  0  0  0  0  0  0  0  0
   10.8420   -1.1950   26.3330 H   0  0  0  0  0  0  0  0  0  0  0  0
   12.6380   -0.6280   24.6610 H   0  0  0  0  0  0  0  0  0  0  0  0
    9.6760   -0.4860   21.5730 H   0  0  0  0  0  0  0  0  0  0  0  0
    6.5560    0.2780   24.4850 H   0  0  0  0  0  0  0  0  0  0  0  0
    5.5160   -1.1200   24.0750 H   0  0  0  0  0  0  0  0  0  0  0  0
    5.1160   -2.4020   25.8650 H   0  0  0  0  0  0  0  0  0  0  0  0
    6.4250   -2.8150   27.0140 H   0  0  0  0  0  0  0  0  0  0  0  0
    6.6910   -1.3790   28.8220 H   0  0  0  0  0  0  0  0  0  0  0  0
    5.6060    1.2460   28.9690 H   0  0  0  0  0  0  0  0  0  0  0  0
    4.3710    0.1820   29.6540 H   0  0  0  0  0  0  0  0  0  0  0  0
    6.0110    0.2140   30.3770 H   0  0  0  0  0  0  0  0  0  0  0  0
  1  2  1  0  0  0  0
  1 58  1  0  0  0  0
  1 59  1  0  0  0  0
  1 60  1  0  0  0  0
  2  3  1  0  0  0  0
  2 57  1  0  0  0  0
  3  4  2  0  0  0  0
  3  5  1  0  0  0  0
  5  6  1  0  0  0  0
  5 55  1  0  0  0  0
  5 56  1  0  0  0  0
  6  7  1  0  0  0  0
  6 48  1  0  0  0  0
  7  8  1  0  0  0  0
  7 53  1  0  0  0  0
  7 54  1  0  0  0  0
  8  9  1  6  0  0  0
  8 29  1  0  0  0  0
  8 41  1  0  0  0  0
  9 10  2  0  0  0  0
  9 11  1  0  0  0  0
 11 12  1  0  0  0  0
 11 28  1  0  0  0  0
 12 13  2  0  0  0  0
 12 21  1  0  0  0  0
 13 14  1  0  0  0  0
 13 27  1  0  0  0  0
 14 15  2  0  0  0  0
 15 16  1  0  0  0  0
 15 26  1  0  0  0  0
 16 17  2  0  0  0  0
 16 21  1  0  0  0  0
 17 18  1  0  0  0  0
 17 25  1  0  0  0  0
 18 19  2  0  0  0  0
 18 24  1  0  0  0  0
 19 20  1  0  0  0  0
 19 23  1  0  0  0  0
 20 21  2  0  0  0  0
 20 22  1  0  0  0  0
 28 29  1  0  0  0  0
 28 39  1  0  0  0  0
 28 40  1  0  0  0  0
 29 30  1  0  0  0  0
 29 38  1  6  0  0  0
 30 31  1  0  0  0  0
 30 37  1  0  0  0  0
 31 32  2  0  0  0  0
 31 33  1  0  0  0  0
 33 34  1  0  0  0  0
 33 35  1  0  0  0  0
 33 36  1  0  0  0  0
 41 42  2  0  0  0  0
 41 47  1  0  0  0  0
 42 43  1  0  0  0  0
 42 52  1  0  0  0  0
 43 44  1  0  0  0  0
 43 45  2  0  0  0  0
 45 46  1  0  0  0  0
 45 51  1  0  0  0  0
 46 47  2  0  0  0  0
 46 50  1  0  0  0  0
 47 48  1  0  0  0  0
 48 49  2  0  0  0  0
M  END
>  <MODEL>
       2

$$$$
best_conformers_72.pdb
 OpenBabel02042510453D

 60 64  0  0  1  0  0  0  0  0999 V2000
    3.8500   -4.9690   26.2170 C   0  0  0  0  0  0  0  0  0  0  0  0
    4.4070   -3.6530   25.9270 N   0  0  0  0  0  0  0  0  0  0  0  0
    5.3630   -3.1530   26.7600 C   0  0  0  0  0  0  0  0  0  0  0  0
    5.8170   -3.8310   27.6680 O   0  0  0  0  0  0  0  0  0  0  0  0
    5.7890   -1.6900   26.5160 C   0  0  0  0  0  0  0  0  0  0  0  0
    6.8310   -1.4930   25.5180 N   0  0  0  0  0  0  0  0  0  0  0  0
    6.4690   -0.8300   24.2730 C   0  0  0  0  0  0  0  0  0  0  0  0
    7.4630   -1.0940   23.1120 C   0  0  2  0  0  0  0  0  0  0  0  0
    7.1020   -0.1150   21.9880 C   0  0  0  0  0  0  0  0  0  0  0  0
    7.2920    1.0870   21.9790 O   0  0  0  0  0  0  0  0  0  0  0  0
    6.4600   -0.8060   20.9830 N   0  0  0  0  0  0  0  0  0  0  0  0
    5.8480   -0.1620   19.8710 C   0  0  0  0  0  0  0  0  0  0  0  0
    6.2570   -0.4590   18.5950 C   0  0  0  0  0  0  0  0  0  0  0  0
    5.7700    0.1160   17.4660 N   0  0  0  0  0  0  0  0  0  0  0  0
    4.8070    0.9970   17.6080 C   0  0  0  0  0  0  0  0  0  0  0  0
    4.2420    1.3650   18.8630 C   0  0  0  0  0  0  0  0  0  0  0  0
    3.1800    2.3090   18.9550 C   0  0  0  0  0  0  0  0  0  0  0  0
    2.6310    2.6210   20.1680 C   0  0  0  0  0  0  0  0  0  0  0  0
    3.1160    1.9970   21.3400 C   0  0  0  0  0  0  0  0  0  0  0  0
    4.1420    1.0900   21.2750 C   0  0  0  0  0  0  0  0  0  0  0  0
    4.7570    0.7610   20.0340 C   0  0  0  0  0  0  0  0  0  0  0  0
    4.5020    0.6220   22.1850 H   0  0  0  0  0  0  0  0  0  0  0  0
    2.6760    2.2480   22.3010 H   0  0  0  0  0  0  0  0  0  0  0  0
    1.8260    3.3490   20.2390 H   0  0  0  0  0  0  0  0  0  0  0  0
    2.8190    2.7770   18.0400 H   0  0  0  0  0  0  0  0  0  0  0  0
    4.4190    1.4610   16.7000 H   0  0  0  0  0  0  0  0  0  0  0  0
    7.0440   -1.1950   18.4330 H   0  0  0  0  0  0  0  0  0  0  0  0
    6.2930   -2.2210   21.2680 C   0  0  0  0  0  0  0  0  0  0  0  0
    7.2700   -2.4940   22.4190 C   0  0  2  0  0  0  0  0  0  0  0  0
    6.8790   -3.6220   23.2420 N   0  0  0  0  0  0  0  0  0  0  0  0
    7.8060   -4.4270   23.8560 C   0  0  0  0  0  0  0  0  0  0  0  0
    9.0100   -4.2650   23.7290 O   0  0  0  0  0  0  0  0  0  0  0  0
    7.2420   -5.5580   24.6990 C   0  0  0  0  0  0  0  0  0  0  0  0
    6.2650   -5.9110   24.3510 H   0  0  0  0  0  0  0  0  0  0  0  0
    7.9550   -6.3860   24.6650 H   0  0  0  0  0  0  0  0  0  0  0  0
    7.1250   -5.2420   25.7430 H   0  0  0  0  0  0  0  0  0  0  0  0
    5.9400   -3.6450   23.6110 H   0  0  0  0  0  0  0  0  0  0  0  0
    8.2590   -2.7530   22.0250 H   0  0  0  0  0  0  0  0  0  0  0  0
    6.5210   -2.8090   20.3830 H   0  0  0  0  0  0  0  0  0  0  0  0
    5.2610   -2.4510   21.5710 H   0  0  0  0  0  0  0  0  0  0  0  0
    8.8770   -0.9140   23.6320 C   0  0  0  0  0  0  0  0  0  0  0  0
    9.9120   -0.5630   22.7580 C   0  0  0  0  0  0  0  0  0  0  0  0
   11.2150   -0.5020   23.2160 C   0  0  0  0  0  0  0  0  0  0  0  0
   12.4900   -0.0450   22.1260 Cl  0  0  0  0  0  0  0  0  0  0  0  0
   11.5310   -0.8090   24.5380 C   0  0  0  0  0  0  0  0  0  0  0  0
   10.5150   -1.1860   25.3980 C   0  0  0  0  0  0  0  0  0  0  0  0
    9.1930   -1.2350   24.9540 C   0  0  0  0  0  0  0  0  0  0  0  0
    8.1320   -1.6870   25.9090 C   0  0  0  0  0  0  0  0  0  0  0  0
    8.4070   -2.1940   26.9800 O   0  0  0  0  0  0  0  0  0  0  0  0
   10.7200   -1.4620   26.4270 H   0  0  0  0  0  0  0  0  0  0  0  0
   12.5620   -0.7610   24.8710 H   0  0  0  0  0  0  0  0  0  0  0  0
    9.6990   -0.3220   21.7220 H   0  0  0  0  0  0  0  0  0  0  0  0
    6.4120    0.2640   24.3940 H   0  0  0  0  0  0  0  0  0  0  0  0
    5.4790   -1.2040   23.9780 H   0  0  0  0  0  0  0  0  0  0  0  0
    6.1360   -1.3100   27.4790 H   0  0  0  0  0  0  0  0  0  0  0  0
    4.9290   -1.0850   26.2020 H   0  0  0  0  0  0  0  0  0  0  0  0
    3.9630   -3.0640   25.2380 H   0  0  0  0  0  0  0  0  0  0  0  0
    4.6500   -5.7220   26.2100 H   0  0  0  0  0  0  0  0  0  0  0  0
    3.3800   -5.0040   27.2110 H   0  0  0  0  0  0  0  0  0  0  0  0
    3.1050   -5.2020   25.4520 H   0  0  0  0  0  0  0  0  0  0  0  0
  1  2  1  0  0  0  0
  1 58  1  0  0  0  0
  1 59  1  0  0  0  0
  1 60  1  0  0  0  0
  2  3  1  0  0  0  0
  2 57  1  0  0  0  0
  3  4  2  0  0  0  0
  3  5  1  0  0  0  0
  5  6  1  0  0  0  0
  5 55  1  0  0  0  0
  5 56  1  0  0  0  0
  6  7  1  0  0  0  0
  6 48  1  0  0  0  0
  7  8  1  0  0  0  0
  7 53  1  0  0  0  0
  7 54  1  0  0  0  0
  8  9  1  6  0  0  0
  8 29  1  0  0  0  0
  8 41  1  0  0  0  0
  9 10  2  0  0  0  0
  9 11  1  0  0  0  0
 11 12  1  0  0  0  0
 11 28  1  0  0  0  0
 12 13  2  0  0  0  0
 12 21  1  0  0  0  0
 13 14  1  0  0  0  0
 13 27  1  0  0  0  0
 14 15  2  0  0  0  0
 15 16  1  0  0  0  0
 15 26  1  0  0  0  0
 16 17  2  0  0  0  0
 16 21  1  0  0  0  0
 17 18  1  0  0  0  0
 17 25  1  0  0  0  0
 18 19  2  0  0  0  0
 18 24  1  0  0  0  0
 19 20  1  0  0  0  0
 19 23  1  0  0  0  0
 20 21  2  0  0  0  0
 20 22  1  0  0  0  0
 28 29  1  0  0  0  0
 28 39  1  0  0  0  0
 28 40  1  0  0  0  0
 29 30  1  0  0  0  0
 29 38  1  6  0  0  0
 30 31  1  0  0  0  0
 30 37  1  0  0  0  0
 31 32  2  0  0  0  0
 31 33  1  0  0  0  0
 33 34  1  0  0  0  0
 33 35  1  0  0  0  0
 33 36  1  0  0  0  0
 41 42  2  0  0  0  0
 41 47  1  0  0  0  0
 42 43  1  0  0  0  0
 42 52  1  0  0  0  0
 43 44  1  0  0  0  0
 43 45  2  0  0  0  0
 45 46  1  0  0  0  0
 45 51  1  0  0  0  0
 46 47  2  0  0  0  0
 46 50  1  0  0  0  0
 47 48  1  0  0  0  0
 48 49  2  0  0  0  0
M  END
>  <MODEL>
       3

$$$$
best_conformers_72.pdb
 OpenBabel02042510453D

 60 64  0  0  1  0  0  0  0  0999 V2000
    8.2020   -8.0730   23.8390 C   0  0  0  0  0  0  0  0  0  0  0  0
    7.4480   -7.0720   23.1210 N   0  0  0  0  0  0  0  0  0  0  0  0
    6.1350   -6.8990   23.4260 C   0  0  0  0  0  0  0  0  0  0  0  0
    5.5680   -7.6250   24.2260 O   0  0  0  0  0  0  0  0  0  0  0  0
    5.4290   -5.7450   22.7110 C   0  0  0  0  0  0  0  0  0  0  0  0
    5.6100   -4.4540   23.3440 N   0  0  0  0  0  0  0  0  0  0  0  0
    6.8120   -3.6770   23.0650 C   0  0  0  0  0  0  0  0  0  0  0  0
    6.5200   -2.1640   22.9170 C   0  0  2  0  0  0  0  0  0  0  0  0
    5.7690   -1.8700   21.6110 C   0  0  0  0  0  0  0  0  0  0  0  0
    4.7680   -2.4220   21.2060 O   0  0  0  0  0  0  0  0  0  0  0  0
    6.4050   -0.8450   20.9560 N   0  0  0  0  0  0  0  0  0  0  0  0
    5.8050   -0.2020   19.8510 C   0  0  0  0  0  0  0  0  0  0  0  0
    6.2750   -0.4560   18.5890 C   0  0  0  0  0  0  0  0  0  0  0  0
    5.7980    0.1260   17.4610 N   0  0  0  0  0  0  0  0  0  0  0  0
    4.8170    0.9870   17.6070 C   0  0  0  0  0  0  0  0  0  0  0  0
    4.2430    1.3440   18.8630 C   0  0  0  0  0  0  0  0  0  0  0  0
    3.1970    2.2970   18.9600 C   0  0  0  0  0  0  0  0  0  0  0  0
    2.6730    2.6330   20.1760 C   0  0  0  0  0  0  0  0  0  0  0  0
    3.1690    2.0330   21.3570 C   0  0  0  0  0  0  0  0  0  0  0  0
    4.1780    1.1040   21.2980 C   0  0  0  0  0  0  0  0  0  0  0  0
    4.7420    0.7380   20.0360 C   0  0  0  0  0  0  0  0  0  0  0  0
    4.5530    0.6590   22.2220 H   0  0  0  0  0  0  0  0  0  0  0  0
    2.7510    2.3190   22.3180 H   0  0  0  0  0  0  0  0  0  0  0  0
    1.8750    3.3670   20.2460 H   0  0  0  0  0  0  0  0  0  0  0  0
    2.8350    2.7610   18.0470 H   0  0  0  0  0  0  0  0  0  0  0  0
    4.4280    1.4630   16.7050 H   0  0  0  0  0  0  0  0  0  0  0  0
    7.0660   -1.1920   18.4480 H   0  0  0  0  0  0  0  0  0  0  0  0
    7.5530   -0.3000   21.6380 C   0  0  0  0  0  0  0  0  0  0  0  0
    7.8050   -1.2900   22.7820 C   0  0  2  0  0  0  0  0  0  0  0  0
    9.0360   -2.0060   22.5660 N   0  0  0  0  0  0  0  0  0  0  0  0
    9.8740   -2.2840   23.6110 C   0  0  0  0  0  0  0  0  0  0  0  0
    9.6920   -1.8530   24.7350 O   0  0  0  0  0  0  0  0  0  0  0  0
   10.9590   -3.2310   23.1860 C   0  0  0  0  0  0  0  0  0  0  0  0
   11.6400   -3.4710   24.0040 H   0  0  0  0  0  0  0  0  0  0  0  0
   11.4750   -2.7980   22.3230 H   0  0  0  0  0  0  0  0  0  0  0  0
   10.4400   -4.1140   22.8370 H   0  0  0  0  0  0  0  0  0  0  0  0
    9.2060   -2.4620   21.6790 H   0  0  0  0  0  0  0  0  0  0  0  0
    7.9780   -0.7900   23.7340 H   0  0  0  0  0  0  0  0  0  0  0  0
    8.4150   -0.2520   20.9670 H   0  0  0  0  0  0  0  0  0  0  0  0
    7.3670    0.7150   22.0180 H   0  0  0  0  0  0  0  0  0  0  0  0
    5.6690   -1.7400   24.1050 C   0  0  0  0  0  0  0  0  0  0  0  0
    5.6480   -0.4040   24.5290 C   0  0  0  0  0  0  0  0  0  0  0  0
    4.8300   -0.0260   25.5820 C   0  0  0  0  0  0  0  0  0  0  0  0
    4.7890    1.6480   26.0710 Cl  0  0  0  0  0  0  0  0  0  0  0  0
    4.0250   -0.9480   26.2500 C   0  0  0  0  0  0  0  0  0  0  0  0
    4.0260   -2.2600   25.8210 C   0  0  0  0  0  0  0  0  0  0  0  0
    4.8280   -2.6490   24.7510 C   0  0  0  0  0  0  0  0  0  0  0  0
    4.7070   -4.0670   24.2950 C   0  0  0  0  0  0  0  0  0  0  0  0
    3.8320   -4.8080   24.7240 O   0  0  0  0  0  0  0  0  0  0  0  0
    3.4040   -3.0220   26.2820 H   0  0  0  0  0  0  0  0  0  0  0  0
    3.3930   -0.6220   27.0690 H   0  0  0  0  0  0  0  0  0  0  0  0
    6.2730    0.3450   24.0480 H   0  0  0  0  0  0  0  0  0  0  0  0
    7.5370   -3.8140   23.8770 H   0  0  0  0  0  0  0  0  0  0  0  0
    7.2500   -4.0450   22.1340 H   0  0  0  0  0  0  0  0  0  0  0  0
    5.8010   -5.6640   21.6850 H   0  0  0  0  0  0  0  0  0  0  0  0
    4.3600   -5.9670   22.7070 H   0  0  0  0  0  0  0  0  0  0  0  0
    7.9200   -6.4740   22.4680 H   0  0  0  0  0  0  0  0  0  0  0  0
    7.7700   -9.0620   23.6820 H   0  0  0  0  0  0  0  0  0  0  0  0
    9.2430   -8.0780   23.5130 H   0  0  0  0  0  0  0  0  0  0  0  0
    8.1590   -7.8670   24.9080 H   0  0  0  0  0  0  0  0  0  0  0  0
  1  2  1  0  0  0  0
  1 58  1  0  0  0  0
  1 59  1  0  0  0  0
  1 60  1  0  0  0  0
  2  3  1  0  0  0  0
  2 57  1  0  0  0  0
  3  4  2  0  0  0  0
  3  5  1  0  0  0  0
  5  6  1  0  0  0  0
  5 55  1  0  0  0  0
  5 56  1  0  0  0  0
  6  7  1  0  0  0  0
  6 48  1  0  0  0  0
  7  8  1  0  0  0  0
  7 53  1  0  0  0  0
  7 54  1  0  0  0  0
  8  9  1  6  0  0  0
  8 29  1  0  0  0  0
  8 41  1  0  0  0  0
  9 10  2  0  0  0  0
  9 11  1  0  0  0  0
 11 12  1  0  0  0  0
 11 28  1  0  0  0  0
 12 13  2  0  0  0  0
 12 21  1  0  0  0  0
 13 14  1  0  0  0  0
 13 27  1  0  0  0  0
 14 15  2  0  0  0  0
 15 16  1  0  0  0  0
 15 26  1  0  0  0  0
 16 17  2  0  0  0  0
 16 21  1  0  0  0  0
 17 18  1  0  0  0  0
 17 25  1  0  0  0  0
 18 19  2  0  0  0  0
 18 24  1  0  0  0  0
 19 20  1  0  0  0  0
 19 23  1  0  0  0  0
 20 21  2  0  0  0  0
 20 22  1  0  0  0  0
 28 29  1  0  0  0  0
 28 39  1  0  0  0  0
 28 40  1  0  0  0  0
 29 30  1  0  0  0  0
 29 38  1  1  0  0  0
 30 31  1  0  0  0  0
 30 37  1  0  0  0  0
 31 32  2  0  0  0  0
 31 33  1  0  0  0  0
 33 34  1  0  0  0  0
 33 35  1  0  0  0  0
 33 36  1  0  0  0  0
 41 42  2  0  0  0  0
 41 47  1  0  0  0  0
 42 43  1  0  0  0  0
 42 52  1  0  0  0  0
 43 44  1  0  0  0  0
 43 45  2  0  0  0  0
 45 46  1  0  0  0  0
 45 51  1  0  0  0  0
 46 47  2  0  0  0  0
 46 50  1  0  0  0  0
 47 48  1  0  0  0  0
 48 49  2  0  0  0  0
M  END
>  <MODEL>
       4

$$$$
best_conformers_72.pdb
 OpenBabel02042510453D

 60 64  0  0  1  0  0  0  0  0999 V2000
    3.8940    1.0660   27.6910 C   0  0  0  0  0  0  0  0  0  0  0  0
    4.3880   -0.0200   26.8770 N   0  0  0  0  0  0  0  0  0  0  0  0
    5.3440   -0.8470   27.3760 C   0  0  0  0  0  0  0  0  0  0  0  0
    5.7580   -0.7280   28.5170 O   0  0  0  0  0  0  0  0  0  0  0  0
    5.8660   -1.9130   26.4130 C   0  0  0  0  0  0  0  0  0  0  0  0
    6.8860   -1.4330   25.5030 N   0  0  0  0  0  0  0  0  0  0  0  0
    6.5050   -0.7630   24.2720 C   0  0  0  0  0  0  0  0  0  0  0  0
    7.4490   -1.0780   23.0880 C   0  0  2  0  0  0  0  0  0  0  0  0
    7.0910   -0.1170   21.9560 C   0  0  0  0  0  0  0  0  0  0  0  0
    7.2930    1.0800   21.9160 O   0  0  0  0  0  0  0  0  0  0  0  0
    6.4470   -0.8190   20.9680 N   0  0  0  0  0  0  0  0  0  0  0  0
    5.8330   -0.1730   19.8670 C   0  0  0  0  0  0  0  0  0  0  0  0
    6.2630   -0.4690   18.5980 C   0  0  0  0  0  0  0  0  0  0  0  0
    5.7870    0.1090   17.4690 N   0  0  0  0  0  0  0  0  0  0  0  0
    4.8210    0.9860   17.6140 C   0  0  0  0  0  0  0  0  0  0  0  0
    4.2530    1.3550   18.8670 C   0  0  0  0  0  0  0  0  0  0  0  0
    3.1950    2.2980   18.9540 C   0  0  0  0  0  0  0  0  0  0  0  0
    2.6390    2.6140   20.1620 C   0  0  0  0  0  0  0  0  0  0  0  0
    3.1140    1.9970   21.3430 C   0  0  0  0  0  0  0  0  0  0  0  0
    4.1400    1.0890   21.2890 C   0  0  0  0  0  0  0  0  0  0  0  0
    4.7550    0.7580   20.0430 C   0  0  0  0  0  0  0  0  0  0  0  0
    4.4920    0.6310   22.2100 H   0  0  0  0  0  0  0  0  0  0  0  0
    2.6660    2.2510   22.2990 H   0  0  0  0  0  0  0  0  0  0  0  0
    1.8340    3.3430   20.2270 H   0  0  0  0  0  0  0  0  0  0  0  0
    2.8400    2.7630   18.0390 H   0  0  0  0  0  0  0  0  0  0  0  0
    4.4290    1.4470   16.7090 H   0  0  0  0  0  0  0  0  0  0  0  0
    7.0590   -1.2020   18.4610 H   0  0  0  0  0  0  0  0  0  0  0  0
    6.2580   -2.2220   21.2690 C   0  0  0  0  0  0  0  0  0  0  0  0
    7.2040   -2.4880   22.4420 C   0  0  2  0  0  0  0  0  0  0  0  0
    6.7220   -3.5600   23.2900 N   0  0  0  0  0  0  0  0  0  0  0  0
    7.5740   -4.3120   24.0580 C   0  0  0  0  0  0  0  0  0  0  0  0
    8.7840   -4.2360   23.9430 O   0  0  0  0  0  0  0  0  0  0  0  0
    6.9230   -5.2740   25.0300 C   0  0  0  0  0  0  0  0  0  0  0  0
    5.9620   -4.9010   25.3990 H   0  0  0  0  0  0  0  0  0  0  0  0
    6.7580   -6.2510   24.5600 H   0  0  0  0  0  0  0  0  0  0  0  0
    7.6170   -5.3830   25.8650 H   0  0  0  0  0  0  0  0  0  0  0  0
    5.7490   -3.5350   23.5570 H   0  0  0  0  0  0  0  0  0  0  0  0
    8.1760   -2.8210   22.0710 H   0  0  0  0  0  0  0  0  0  0  0  0
    5.2200   -2.4130   21.5700 H   0  0  0  0  0  0  0  0  0  0  0  0
    6.4730   -2.8330   20.3930 H   0  0  0  0  0  0  0  0  0  0  0  0
    8.8760   -0.9070   23.5590 C   0  0  0  0  0  0  0  0  0  0  0  0
    9.9000   -0.6400   22.6420 C   0  0  0  0  0  0  0  0  0  0  0  0
   11.2100   -0.5530   23.0800 C   0  0  0  0  0  0  0  0  0  0  0  0
   12.4860   -0.2290   21.9350 Cl  0  0  0  0  0  0  0  0  0  0  0  0
   11.5390   -0.7270   24.4270 C   0  0  0  0  0  0  0  0  0  0  0  0
   10.5330   -1.0250   25.3280 C   0  0  0  0  0  0  0  0  0  0  0  0
    9.2160   -1.1280   24.8950 C   0  0  0  0  0  0  0  0  0  0  0  0
    8.1930   -1.5910   25.8800 C   0  0  0  0  0  0  0  0  0  0  0  0
    8.5080   -2.1000   26.9430 O   0  0  0  0  0  0  0  0  0  0  0  0
   10.7320   -1.1960   26.3840 H   0  0  0  0  0  0  0  0  0  0  0  0
   12.5750   -0.6610   24.7430 H   0  0  0  0  0  0  0  0  0  0  0  0
    9.6720   -0.5080   21.5890 H   0  0  0  0  0  0  0  0  0  0  0  0
    5.4880   -1.0600   23.9950 H   0  0  0  0  0  0  0  0  0  0  0  0
    6.5180    0.3230   24.4070 H   0  0  0  0  0  0  0  0  0  0  0  0
    6.3200   -2.7000   27.0190 H   0  0  0  0  0  0  0  0  0  0  0  0
    5.0310   -2.3060   25.8240 H   0  0  0  0  0  0  0  0  0  0  0  0
    4.0010   -0.1650   25.9610 H   0  0  0  0  0  0  0  0  0  0  0  0
    4.7170    1.7330   27.9570 H   0  0  0  0  0  0  0  0  0  0  0  0
    3.4620    0.6930   28.6220 H   0  0  0  0  0  0  0  0  0  0  0  0
    3.1390    1.6230   27.1340 H   0  0  0  0  0  0  0  0  0  0  0  0
  1  2  1  0  0  0  0
  1 58  1  0  0  0  0
  1 59  1  0  0  0  0
  1 60  1  0  0  0  0
  2  3  1  0  0  0  0
  2 57  1  0  0  0  0
  3  4  2  0  0  0  0
  3  5  1  0  0  0  0
  5  6  1  0  0  0  0
  5 55  1  0  0  0  0
  5 56  1  0  0  0  0
  6  7  1  0  0  0  0
  6 48  1  0  0  0  0
  7  8  1  0  0  0  0
  7 53  1  0  0  0  0
  7 54  1  0  0  0  0
  8  9  1  6  0  0  0
  8 29  1  0  0  0  0
  8 41  1  0  0  0  0
  9 10  2  0  0  0  0
  9 11  1  0  0  0  0
 11 12  1  0  0  0  0
 11 28  1  0  0  0  0
 12 13  2  0  0  0  0
 12 21  1  0  0  0  0
 13 14  1  0  0  0  0
 13 27  1  0  0  0  0
 14 15  2  0  0  0  0
 15 16  1  0  0  0  0
 15 26  1  0  0  0  0
 16 17  2  0  0  0  0
 16 21  1  0  0  0  0
 17 18  1  0  0  0  0
 17 25  1  0  0  0  0
 18 19  2  0  0  0  0
 18 24  1  0  0  0  0
 19 20  1  0  0  0  0
 19 23  1  0  0  0  0
 20 21  2  0  0  0  0
 20 22  1  0  0  0  0
 28 29  1  0  0  0  0
 28 39  1  0  0  0  0
 28 40  1  0  0  0  0
 29 30  1  0  0  0  0
 29 38  1  6  0  0  0
 30 31  1  0  0  0  0
 30 37  1  0  0  0  0
 31 32  2  0  0  0  0
 31 33  1  0  0  0  0
 33 34  1  0  0  0  0
 33 35  1  0  0  0  0
 33 36  1  0  0  0  0
 41 42  2  0  0  0  0
 41 47  1  0  0  0  0
 42 43  1  0  0  0  0
 42 52  1  0  0  0  0
 43 44  1  0  0  0  0
 43 45  2  0  0  0  0
 45 46  1  0  0  0  0
 45 51  1  0  0  0  0
 46 47  2  0  0  0  0
 46 50  1  0  0  0  0
 47 48  1  0  0  0  0
 48 49  2  0  0  0  0
M  END
>  <MODEL>
       5

$$$$
