best_conformers_1.pdb
 OpenBabel02042510453D

 51 54  0  0  0  0  0  0  0  0999 V2000
    4.0190   -3.0610   27.4980 C   0  0  0  0  0  0  0  0  0  0  0  0
    5.1060   -3.3610   26.6590 O   0  0  0  0  0  0  0  0  0  0  0  0
    5.5180   -2.3740   25.8200 C   0  0  0  0  0  0  0  0  0  0  0  0
    4.9770   -1.0910   25.7550 C   0  0  0  0  0  0  0  0  0  0  0  0
    5.4990   -0.1770   24.8400 C   0  0  0  0  0  0  0  0  0  0  0  0
    6.5120   -0.5510   23.9660 C   0  0  0  0  0  0  0  0  0  0  0  0
    7.0650    0.4170   23.0740 N   0  0  0  0  0  0  0  0  0  0  0  0
    7.8500    1.4800   23.6940 C   0  0  0  0  0  0  0  0  0  0  0  0
    9.1960    0.9970   24.1870 C   0  0  0  0  0  0  0  0  0  0  0  0
    9.2970    0.1190   25.2670 C   0  0  0  0  0  0  0  0  0  0  0  0
   10.5370   -0.3410   25.6920 C   0  0  0  0  0  0  0  0  0  0  0  0
   11.6990    0.0840   25.0490 C   0  0  0  0  0  0  0  0  0  0  0  0
   11.5870    0.9630   23.9770 C   0  0  0  0  0  0  0  0  0  0  0  0
   13.0160    1.5530   23.1770 Cl  0  0  0  0  0  0  0  0  0  0  0  0
   10.3520    1.3970   23.5240 C   0  0  0  0  0  0  0  0  0  0  0  0
   10.2780    2.0330   22.6440 H   0  0  0  0  0  0  0  0  0  0  0  0
   12.6720   -0.2870   25.3540 H   0  0  0  0  0  0  0  0  0  0  0  0
   10.6070   -1.0050   26.5530 H   0  0  0  0  0  0  0  0  0  0  0  0
    8.3930   -0.2200   25.7670 H   0  0  0  0  0  0  0  0  0  0  0  0
    7.2760    1.8930   24.5270 H   0  0  0  0  0  0  0  0  0  0  0  0
    7.9700    2.2560   22.9380 H   0  0  0  0  0  0  0  0  0  0  0  0
    7.3350    0.1740   21.7360 C   0  0  0  0  0  0  0  0  0  0  0  0
    8.1940    0.7850   21.1290 O   0  0  0  0  0  0  0  0  0  0  0  0
    6.4480   -0.8400   21.0230 C   0  0  0  0  0  0  0  0  0  0  0  0
    5.7940   -0.1960   19.8350 C   0  0  0  0  0  0  0  0  0  0  0  0
    6.2650   -0.4350   18.5740 C   0  0  0  0  0  0  0  0  0  0  0  0
    5.7950    0.1380   17.4350 N   0  0  0  0  0  0  0  0  0  0  0  0
    4.8100    0.9930   17.5770 C   0  0  0  0  0  0  0  0  0  0  0  0
    4.2320    1.3530   18.8280 C   0  0  0  0  0  0  0  0  0  0  0  0
    3.1900    2.3100   18.9280 C   0  0  0  0  0  0  0  0  0  0  0  0
    2.6670    2.6450   20.1460 C   0  0  0  0  0  0  0  0  0  0  0  0
    3.1640    2.0410   21.3230 C   0  0  0  0  0  0  0  0  0  0  0  0
    4.1750    1.1140   21.2580 C   0  0  0  0  0  0  0  0  0  0  0  0
    4.7360    0.7450   20.0010 C   0  0  0  0  0  0  0  0  0  0  0  0
    4.5540    0.6750   22.1800 H   0  0  0  0  0  0  0  0  0  0  0  0
    2.7430    2.3200   22.2850 H   0  0  0  0  0  0  0  0  0  0  0  0
    1.8730    3.3840   20.2190 H   0  0  0  0  0  0  0  0  0  0  0  0
    2.8250    2.7770   18.0160 H   0  0  0  0  0  0  0  0  0  0  0  0
    4.4170    1.4530   16.6690 H   0  0  0  0  0  0  0  0  0  0  0  0
    7.0860   -1.1400   18.4370 H   0  0  0  0  0  0  0  0  0  0  0  0
    7.1020   -1.6540   20.6890 H   0  0  0  0  0  0  0  0  0  0  0  0
    5.7090   -1.2550   21.7120 H   0  0  0  0  0  0  0  0  0  0  0  0
    7.0630   -1.8320   24.0560 C   0  0  0  0  0  0  0  0  0  0  0  0
    6.5760   -2.7280   24.9860 C   0  0  0  0  0  0  0  0  0  0  0  0
    6.9970   -3.7180   25.1160 H   0  0  0  0  0  0  0  0  0  0  0  0
    7.9290   -2.0900   23.4480 H   0  0  0  0  0  0  0  0  0  0  0  0
    5.1210    0.8460   24.8120 H   0  0  0  0  0  0  0  0  0  0  0  0
    4.1780   -0.7800   26.4200 H   0  0  0  0  0  0  0  0  0  0  0  0
    3.8130   -3.9690   28.0650 H   0  0  0  0  0  0  0  0  0  0  0  0
    3.1360   -2.7820   26.9090 H   0  0  0  0  0  0  0  0  0  0  0  0
    4.2730   -2.2420   28.1830 H   0  0  0  0  0  0  0  0  0  0  0  0
  1  2  1  0  0  0  0
  1 49  1  0  0  0  0
  1 50  1  0  0  0  0
  1 51  1  0  0  0  0
  2  3  1  0  0  0  0
  3  4  2  0  0  0  0
  3 44  1  0  0  0  0
  4  5  1  0  0  0  0
  4 48  1  0  0  0  0
  5  6  2  0  0  0  0
  5 47  1  0  0  0  0
  6  7  1  0  0  0  0
  6 43  1  0  0  0  0
  7  8  1  0  0  0  0
  7 22  1  0  0  0  0
  8  9  1  0  0  0  0
  8 20  1  0  0  0  0
  8 21  1  0  0  0  0
  9 10  2  0  0  0  0
  9 15  1  0  0  0  0
 10 11  1  0  0  0  0
 10 19  1  0  0  0  0
 11 12  2  0  0  0  0
 11 18  1  0  0  0  0
 12 13  1  0  0  0  0
 12 17  1  0  0  0  0
 13 14  1  0  0  0  0
 13 15  2  0  0  0  0
 15 16  1  0  0  0  0
 22 23  2  0  0  0  0
 22 24  1  0  0  0  0
 24 25  1  0  0  0  0
 24 41  1  0  0  0  0
 24 42  1  0  0  0  0
 25 26  2  0  0  0  0
 25 34  1  0  0  0  0
 26 27  1  0  0  0  0
 26 40  1  0  0  0  0
 27 28  2  0  0  0  0
 28 29  1  0  0  0  0
 28 39  1  0  0  0  0
 29 30  2  0  0  0  0
 29 34  1  0  0  0  0
 30 31  1  0  0  0  0
 30 38  1  0  0  0  0
 31 32  2  0  0  0  0
 31 37  1  0  0  0  0
 32 33  1  0  0  0  0
 32 36  1  0  0  0  0
 33 34  2  0  0  0  0
 33 35  1  0  0  0  0
 43 44  2  0  0  0  0
 43 46  1  0  0  0  0
 44 45  1  0  0  0  0
M  END
>  <MODEL>
       1

$$$$
best_conformers_1.pdb
 OpenBabel02042510453D

 51 54  0  0  0  0  0  0  0  0999 V2000
    5.4130   -4.5170   26.8460 C   0  0  0  0  0  0  0  0  0  0  0  0
    4.9290   -3.2050   26.7220 O   0  0  0  0  0  0  0  0  0  0  0  0
    5.5400   -2.4050   25.8090 C   0  0  0  0  0  0  0  0  0  0  0  0
    6.6050   -2.7730   24.9890 C   0  0  0  0  0  0  0  0  0  0  0  0
    7.0990   -1.8590   24.0600 C   0  0  0  0  0  0  0  0  0  0  0  0
    6.5540   -0.5800   23.9710 C   0  0  0  0  0  0  0  0  0  0  0  0
    7.0830    0.4000   23.0780 N   0  0  0  0  0  0  0  0  0  0  0  0
    7.8410    1.4810   23.6970 C   0  0  0  0  0  0  0  0  0  0  0  0
    9.1950    1.0080   24.1880 C   0  0  0  0  0  0  0  0  0  0  0  0
    9.2950    0.1640   25.2930 C   0  0  0  0  0  0  0  0  0  0  0  0
   10.5370   -0.2850   25.7360 C   0  0  0  0  0  0  0  0  0  0  0  0
   11.6900    0.1250   25.0640 C   0  0  0  0  0  0  0  0  0  0  0  0
   11.5830    0.9850   23.9780 C   0  0  0  0  0  0  0  0  0  0  0  0
   13.0070    1.5840   23.1700 Cl  0  0  0  0  0  0  0  0  0  0  0  0
   10.3440    1.4210   23.5250 C   0  0  0  0  0  0  0  0  0  0  0  0
   10.2650    2.0420   22.6340 H   0  0  0  0  0  0  0  0  0  0  0  0
   12.6660   -0.1900   25.4050 H   0  0  0  0  0  0  0  0  0  0  0  0
   10.6100   -0.9160   26.6190 H   0  0  0  0  0  0  0  0  0  0  0  0
    8.3960   -0.1260   25.8310 H   0  0  0  0  0  0  0  0  0  0  0  0
    7.9520    2.2480   22.9300 H   0  0  0  0  0  0  0  0  0  0  0  0
    7.2520    1.8940   24.5250 H   0  0  0  0  0  0  0  0  0  0  0  0
    7.3490    0.1730   21.7380 C   0  0  0  0  0  0  0  0  0  0  0  0
    8.2110    0.7840   21.1320 O   0  0  0  0  0  0  0  0  0  0  0  0
    6.4590   -0.8330   21.0250 C   0  0  0  0  0  0  0  0  0  0  0  0
    5.7980   -0.1910   19.8380 C   0  0  0  0  0  0  0  0  0  0  0  0
    6.2610   -0.4340   18.5760 C   0  0  0  0  0  0  0  0  0  0  0  0
    5.7910    0.1390   17.4350 N   0  0  0  0  0  0  0  0  0  0  0  0
    4.8080    0.9950   17.5800 C   0  0  0  0  0  0  0  0  0  0  0  0
    4.2310    1.3570   18.8310 C   0  0  0  0  0  0  0  0  0  0  0  0
    3.1880    2.3140   18.9320 C   0  0  0  0  0  0  0  0  0  0  0  0
    2.6650    2.6480   20.1500 C   0  0  0  0  0  0  0  0  0  0  0  0
    3.1640    2.0430   21.3270 C   0  0  0  0  0  0  0  0  0  0  0  0
    4.1760    1.1180   21.2600 C   0  0  0  0  0  0  0  0  0  0  0  0
    4.7380    0.7500   20.0040 C   0  0  0  0  0  0  0  0  0  0  0  0
    4.5560    0.6790   22.1820 H   0  0  0  0  0  0  0  0  0  0  0  0
    2.7430    2.3220   22.2900 H   0  0  0  0  0  0  0  0  0  0  0  0
    1.8710    3.3860   20.2230 H   0  0  0  0  0  0  0  0  0  0  0  0
    2.8230    2.7800   18.0180 H   0  0  0  0  0  0  0  0  0  0  0  0
    4.4160    1.4550   16.6710 H   0  0  0  0  0  0  0  0  0  0  0  0
    7.0760   -1.1450   18.4390 H   0  0  0  0  0  0  0  0  0  0  0  0
    5.7220   -1.2380   21.7210 H   0  0  0  0  0  0  0  0  0  0  0  0
    7.1070   -1.6490   20.6860 H   0  0  0  0  0  0  0  0  0  0  0  0
    5.5300   -0.2060   24.8390 C   0  0  0  0  0  0  0  0  0  0  0  0
    5.0110   -1.1170   25.7380 C   0  0  0  0  0  0  0  0  0  0  0  0
    4.2010   -0.8780   26.4210 H   0  0  0  0  0  0  0  0  0  0  0  0
    5.1500    0.8140   24.8100 H   0  0  0  0  0  0  0  0  0  0  0  0
    7.9660   -2.1200   23.4530 H   0  0  0  0  0  0  0  0  0  0  0  0
    7.0610   -3.7550   25.0670 H   0  0  0  0  0  0  0  0  0  0  0  0
    6.4620   -4.5160   27.1690 H   0  0  0  0  0  0  0  0  0  0  0  0
    5.3250   -5.0610   25.8970 H   0  0  0  0  0  0  0  0  0  0  0  0
    4.7890   -4.9910   27.6050 H   0  0  0  0  0  0  0  0  0  0  0  0
  1  2  1  0  0  0  0
  1 49  1  0  0  0  0
  1 50  1  0  0  0  0
  1 51  1  0  0  0  0
  2  3  1  0  0  0  0
  3  4  2  0  0  0  0
  3 44  1  0  0  0  0
  4  5  1  0  0  0  0
  4 48  1  0  0  0  0
  5  6  2  0  0  0  0
  5 47  1  0  0  0  0
  6  7  1  0  0  0  0
  6 43  1  0  0  0  0
  7  8  1  0  0  0  0
  7 22  1  0  0  0  0
  8  9  1  0  0  0  0
  8 20  1  0  0  0  0
  8 21  1  0  0  0  0
  9 10  2  0  0  0  0
  9 15  1  0  0  0  0
 10 11  1  0  0  0  0
 10 19  1  0  0  0  0
 11 12  2  0  0  0  0
 11 18  1  0  0  0  0
 12 13  1  0  0  0  0
 12 17  1  0  0  0  0
 13 14  1  0  0  0  0
 13 15  2  0  0  0  0
 15 16  1  0  0  0  0
 22 23  2  0  0  0  0
 22 24  1  0  0  0  0
 24 25  1  0  0  0  0
 24 41  1  0  0  0  0
 24 42  1  0  0  0  0
 25 26  2  0  0  0  0
 25 34  1  0  0  0  0
 26 27  1  0  0  0  0
 26 40  1  0  0  0  0
 27 28  2  0  0  0  0
 28 29  1  0  0  0  0
 28 39  1  0  0  0  0
 29 30  2  0  0  0  0
 29 34  1  0  0  0  0
 30 31  1  0  0  0  0
 30 38  1  0  0  0  0
 31 32  2  0  0  0  0
 31 37  1  0  0  0  0
 32 33  1  0  0  0  0
 32 36  1  0  0  0  0
 33 34  2  0  0  0  0
 33 35  1  0  0  0  0
 43 44  2  0  0  0  0
 43 46  1  0  0  0  0
 44 45  1  0  0  0  0
M  END
>  <MODEL>
       2

$$$$
best_conformers_1.pdb
 OpenBabel02042510453D

 51 54  0  0  0  0  0  0  0  0999 V2000
    4.0150   -3.0680   27.5270 C   0  0  0  0  0  0  0  0  0  0  0  0
    5.0980   -3.3470   26.6690 O   0  0  0  0  0  0  0  0  0  0  0  0
    5.5320   -2.3580   25.8400 C   0  0  0  0  0  0  0  0  0  0  0  0
    6.6020   -2.7050   25.0130 C   0  0  0  0  0  0  0  0  0  0  0  0
    7.1060   -1.8020   24.0960 C   0  0  0  0  0  0  0  0  0  0  0  0
    6.5600   -0.5180   23.9920 C   0  0  0  0  0  0  0  0  0  0  0  0
    7.0890    0.4380   23.0660 N   0  0  0  0  0  0  0  0  0  0  0  0
    7.8030    1.5920   23.6170 C   0  0  0  0  0  0  0  0  0  0  0  0
    9.1810    1.2040   24.0910 C   0  0  0  0  0  0  0  0  0  0  0  0
   10.3370    1.6280   23.4490 C   0  0  0  0  0  0  0  0  0  0  0  0
   11.5900    1.2280   23.9020 C   0  0  0  0  0  0  0  0  0  0  0  0
   11.7130    0.3370   24.9610 C   0  0  0  0  0  0  0  0  0  0  0  0
   10.5390   -0.1420   25.5480 C   0  0  0  0  0  0  0  0  0  0  0  0
   10.6140   -1.3780   26.7730 Cl  0  0  0  0  0  0  0  0  0  0  0  0
    9.2910    0.3460   25.1800 C   0  0  0  0  0  0  0  0  0  0  0  0
    8.3920    0.0810   25.7260 H   0  0  0  0  0  0  0  0  0  0  0  0
   12.7000    0.0240   25.2990 H   0  0  0  0  0  0  0  0  0  0  0  0
   12.4720    1.5780   23.3680 H   0  0  0  0  0  0  0  0  0  0  0  0
   10.2540    2.2010   22.5300 H   0  0  0  0  0  0  0  0  0  0  0  0
    7.8390    2.3520   22.8330 H   0  0  0  0  0  0  0  0  0  0  0  0
    7.2410    1.9850   24.4730 H   0  0  0  0  0  0  0  0  0  0  0  0
    7.3610    0.1640   21.7340 C   0  0  0  0  0  0  0  0  0  0  0  0
    8.2480    0.7410   21.1230 O   0  0  0  0  0  0  0  0  0  0  0  0
    6.4570   -0.8360   21.0250 C   0  0  0  0  0  0  0  0  0  0  0  0
    5.7950   -0.1910   19.8370 C   0  0  0  0  0  0  0  0  0  0  0  0
    6.2500   -0.4370   18.5710 C   0  0  0  0  0  0  0  0  0  0  0  0
    5.7790    0.1400   17.4330 N   0  0  0  0  0  0  0  0  0  0  0  0
    4.8000    1.0020   17.5800 C   0  0  0  0  0  0  0  0  0  0  0  0
    4.2290    1.3640   18.8330 C   0  0  0  0  0  0  0  0  0  0  0  0
    3.1850    2.3200   18.9350 C   0  0  0  0  0  0  0  0  0  0  0  0
    2.6630    2.6520   20.1550 C   0  0  0  0  0  0  0  0  0  0  0  0
    3.1660    2.0460   21.3290 C   0  0  0  0  0  0  0  0  0  0  0  0
    4.1790    1.1220   21.2610 C   0  0  0  0  0  0  0  0  0  0  0  0
    4.7390    0.7550   20.0030 C   0  0  0  0  0  0  0  0  0  0  0  0
    4.5590    0.6780   22.1800 H   0  0  0  0  0  0  0  0  0  0  0  0
    2.7460    2.3220   22.2940 H   0  0  0  0  0  0  0  0  0  0  0  0
    1.8660    3.3880   20.2310 H   0  0  0  0  0  0  0  0  0  0  0  0
    2.8160    2.7840   18.0230 H   0  0  0  0  0  0  0  0  0  0  0  0
    4.4090    1.4660   16.6740 H   0  0  0  0  0  0  0  0  0  0  0  0
    7.0580   -1.1550   18.4240 H   0  0  0  0  0  0  0  0  0  0  0  0
    7.0990   -1.6550   20.6820 H   0  0  0  0  0  0  0  0  0  0  0  0
    5.7250   -1.2430   21.7270 H   0  0  0  0  0  0  0  0  0  0  0  0
    5.5300   -0.1590   24.8530 C   0  0  0  0  0  0  0  0  0  0  0  0
    4.9990   -1.0730   25.7660 C   0  0  0  0  0  0  0  0  0  0  0  0
    4.1810   -0.7680   26.4100 H   0  0  0  0  0  0  0  0  0  0  0  0
    5.1400    0.8570   24.8170 H   0  0  0  0  0  0  0  0  0  0  0  0
    7.9710   -2.0750   23.4950 H   0  0  0  0  0  0  0  0  0  0  0  0
    7.0030   -3.7060   25.1140 H   0  0  0  0  0  0  0  0  0  0  0  0
    4.2540   -2.2590   28.2290 H   0  0  0  0  0  0  0  0  0  0  0  0
    3.1100   -2.8020   26.9640 H   0  0  0  0  0  0  0  0  0  0  0  0
    3.8350   -3.9890   28.0840 H   0  0  0  0  0  0  0  0  0  0  0  0
  1  2  1  0  0  0  0
  1 49  1  0  0  0  0
  1 50  1  0  0  0  0
  1 51  1  0  0  0  0
  2  3  1  0  0  0  0
  3  4  2  0  0  0  0
  3 44  1  0  0  0  0
  4  5  1  0  0  0  0
  4 48  1  0  0  0  0
  5  6  2  0  0  0  0
  5 47  1  0  0  0  0
  6  7  1  0  0  0  0
  6 43  1  0  0  0  0
  7  8  1  0  0  0  0
  7 22  1  0  0  0  0
  8  9  1  0  0  0  0
  8 20  1  0  0  0  0
  8 21  1  0  0  0  0
  9 10  2  0  0  0  0
  9 15  1  0  0  0  0
 10 11  1  0  0  0  0
 10 19  1  0  0  0  0
 11 12  2  0  0  0  0
 11 18  1  0  0  0  0
 12 13  1  0  0  0  0
 12 17  1  0  0  0  0
 13 14  1  0  0  0  0
 13 15  2  0  0  0  0
 15 16  1  0  0  0  0
 22 23  2  0  0  0  0
 22 24  1  0  0  0  0
 24 25  1  0  0  0  0
 24 41  1  0  0  0  0
 24 42  1  0  0  0  0
 25 26  2  0  0  0  0
 25 34  1  0  0  0  0
 26 27  1  0  0  0  0
 26 40  1  0  0  0  0
 27 28  2  0  0  0  0
 28 29  1  0  0  0  0
 28 39  1  0  0  0  0
 29 30  2  0  0  0  0
 29 34  1  0  0  0  0
 30 31  1  0  0  0  0
 30 38  1  0  0  0  0
 31 32  2  0  0  0  0
 31 37  1  0  0  0  0
 32 33  1  0  0  0  0
 32 36  1  0  0  0  0
 33 34  2  0  0  0  0
 33 35  1  0  0  0  0
 43 44  2  0  0  0  0
 43 46  1  0  0  0  0
 44 45  1  0  0  0  0
M  END
>  <MODEL>
       3

$$$$
best_conformers_1.pdb
 OpenBabel02042510453D

 51 54  0  0  0  0  0  0  0  0999 V2000
    5.4190   -4.5360   26.8670 C   0  0  0  0  0  0  0  0  0  0  0  0
    4.9440   -3.2170   26.7240 O   0  0  0  0  0  0  0  0  0  0  0  0
    5.5560   -2.4020   25.8220 C   0  0  0  0  0  0  0  0  0  0  0  0
    5.0270   -1.1110   25.7470 C   0  0  0  0  0  0  0  0  0  0  0  0
    5.5480   -0.1930   24.8530 C   0  0  0  0  0  0  0  0  0  0  0  0
    6.5840   -0.5460   23.9890 C   0  0  0  0  0  0  0  0  0  0  0  0
    7.0980    0.4270   23.0710 N   0  0  0  0  0  0  0  0  0  0  0  0
    7.8020    1.5840   23.6250 C   0  0  0  0  0  0  0  0  0  0  0  0
    9.1860    1.2050   24.0920 C   0  0  0  0  0  0  0  0  0  0  0  0
   10.3330    1.6230   23.4370 C   0  0  0  0  0  0  0  0  0  0  0  0
   11.5830    1.2300   23.9020 C   0  0  0  0  0  0  0  0  0  0  0  0
   11.7120    0.3410   24.9690 C   0  0  0  0  0  0  0  0  0  0  0  0
   10.5420   -0.1550   25.5530 C   0  0  0  0  0  0  0  0  0  0  0  0
   10.6150   -1.4070   26.7730 Cl  0  0  0  0  0  0  0  0  0  0  0  0
    9.2950    0.3500   25.1910 C   0  0  0  0  0  0  0  0  0  0  0  0
    8.3950    0.1120   25.7550 H   0  0  0  0  0  0  0  0  0  0  0  0
   12.7050    0.0580   25.3240 H   0  0  0  0  0  0  0  0  0  0  0  0
   12.4610    1.5840   23.3720 H   0  0  0  0  0  0  0  0  0  0  0  0
   10.2480    2.1950   22.5140 H   0  0  0  0  0  0  0  0  0  0  0  0
    7.8240    2.3430   22.8420 H   0  0  0  0  0  0  0  0  0  0  0  0
    7.2310    1.9720   24.4740 H   0  0  0  0  0  0  0  0  0  0  0  0
    7.3630    0.1670   21.7360 C   0  0  0  0  0  0  0  0  0  0  0  0
    8.2440    0.7470   21.1250 O   0  0  0  0  0  0  0  0  0  0  0  0
    6.4600   -0.8350   21.0250 C   0  0  0  0  0  0  0  0  0  0  0  0
    5.7950   -0.1900   19.8380 C   0  0  0  0  0  0  0  0  0  0  0  0
    6.2500   -0.4370   18.5720 C   0  0  0  0  0  0  0  0  0  0  0  0
    5.7790    0.1400   17.4340 N   0  0  0  0  0  0  0  0  0  0  0  0
    4.8000    1.0020   17.5810 C   0  0  0  0  0  0  0  0  0  0  0  0
    4.2290    1.3650   18.8330 C   0  0  0  0  0  0  0  0  0  0  0  0
    3.1840    2.3200   18.9360 C   0  0  0  0  0  0  0  0  0  0  0  0
    2.6630    2.6520   20.1550 C   0  0  0  0  0  0  0  0  0  0  0  0
    3.1650    2.0470   21.3300 C   0  0  0  0  0  0  0  0  0  0  0  0
    4.1780    1.1230   21.2610 C   0  0  0  0  0  0  0  0  0  0  0  0
    4.7390    0.7560   20.0040 C   0  0  0  0  0  0  0  0  0  0  0  0
    4.5590    0.6790   22.1800 H   0  0  0  0  0  0  0  0  0  0  0  0
    2.7460    2.3220   22.2940 H   0  0  0  0  0  0  0  0  0  0  0  0
    1.8660    3.3870   20.2310 H   0  0  0  0  0  0  0  0  0  0  0  0
    2.8160    2.7850   18.0240 H   0  0  0  0  0  0  0  0  0  0  0  0
    4.4090    1.4660   16.6740 H   0  0  0  0  0  0  0  0  0  0  0  0
    7.0570   -1.1550   18.4250 H   0  0  0  0  0  0  0  0  0  0  0  0
    5.7290   -1.2400   21.7300 H   0  0  0  0  0  0  0  0  0  0  0  0
    7.1010   -1.6560   20.6810 H   0  0  0  0  0  0  0  0  0  0  0  0
    7.1310   -1.8270   24.0890 C   0  0  0  0  0  0  0  0  0  0  0  0
    6.6270   -2.7520   25.0040 C   0  0  0  0  0  0  0  0  0  0  0  0
    7.0660   -3.7430   25.0590 H   0  0  0  0  0  0  0  0  0  0  0  0
    7.9950   -2.0960   23.4810 H   0  0  0  0  0  0  0  0  0  0  0  0
    5.1490    0.8200   24.8200 H   0  0  0  0  0  0  0  0  0  0  0  0
    4.2030   -0.8680   26.4110 H   0  0  0  0  0  0  0  0  0  0  0  0
    4.7860   -4.9930   27.6310 H   0  0  0  0  0  0  0  0  0  0  0  0
    6.4650   -4.5530   27.2000 H   0  0  0  0  0  0  0  0  0  0  0  0
    5.3270   -5.1030   25.9310 H   0  0  0  0  0  0  0  0  0  0  0  0
  1  2  1  0  0  0  0
  1 49  1  0  0  0  0
  1 50  1  0  0  0  0
  1 51  1  0  0  0  0
  2  3  1  0  0  0  0
  3  4  2  0  0  0  0
  3 44  1  0  0  0  0
  4  5  1  0  0  0  0
  4 48  1  0  0  0  0
  5  6  2  0  0  0  0
  5 47  1  0  0  0  0
  6  7  1  0  0  0  0
  6 43  1  0  0  0  0
  7  8  1  0  0  0  0
  7 22  1  0  0  0  0
  8  9  1  0  0  0  0
  8 20  1  0  0  0  0
  8 21  1  0  0  0  0
  9 10  2  0  0  0  0
  9 15  1  0  0  0  0
 10 11  1  0  0  0  0
 10 19  1  0  0  0  0
 11 12  2  0  0  0  0
 11 18  1  0  0  0  0
 12 13  1  0  0  0  0
 12 17  1  0  0  0  0
 13 14  1  0  0  0  0
 13 15  2  0  0  0  0
 15 16  1  0  0  0  0
 22 23  2  0  0  0  0
 22 24  1  0  0  0  0
 24 25  1  0  0  0  0
 24 41  1  0  0  0  0
 24 42  1  0  0  0  0
 25 26  2  0  0  0  0
 25 34  1  0  0  0  0
 26 27  1  0  0  0  0
 26 40  1  0  0  0  0
 27 28  2  0  0  0  0
 28 29  1  0  0  0  0
 28 39  1  0  0  0  0
 29 30  2  0  0  0  0
 29 34  1  0  0  0  0
 30 31  1  0  0  0  0
 30 38  1  0  0  0  0
 31 32  2  0  0  0  0
 31 37  1  0  0  0  0
 32 33  1  0  0  0  0
 32 36  1  0  0  0  0
 33 34  2  0  0  0  0
 33 35  1  0  0  0  0
 43 44  2  0  0  0  0
 43 46  1  0  0  0  0
 44 45  1  0  0  0  0
M  END
>  <MODEL>
       4

$$$$
best_conformers_1.pdb
 OpenBabel02042510453D

 51 54  0  0  0  0  0  0  0  0999 V2000
    4.1370   -8.5890   24.5690 C   0  0  0  0  0  0  0  0  0  0  0  0
    4.9900   -7.9910   23.6280 O   0  0  0  0  0  0  0  0  0  0  0  0
    5.0270   -6.6530   23.4460 C   0  0  0  0  0  0  0  0  0  0  0  0
    5.5650   -6.2810   22.2150 C   0  0  0  0  0  0  0  0  0  0  0  0
    5.8300   -4.9620   21.9420 C   0  0  0  0  0  0  0  0  0  0  0  0
    5.5630   -3.9960   22.9140 C   0  0  0  0  0  0  0  0  0  0  0  0
    5.9350   -2.6530   22.6870 N   0  0  0  0  0  0  0  0  0  0  0  0
    6.5570   -1.9290   23.7880 C   0  0  0  0  0  0  0  0  0  0  0  0
    5.7160   -0.7900   24.3280 C   0  0  0  0  0  0  0  0  0  0  0  0
    6.3210    0.4130   24.6820 C   0  0  0  0  0  0  0  0  0  0  0  0
    5.5600    1.4830   25.1410 C   0  0  0  0  0  0  0  0  0  0  0  0
    4.1800    1.3620   25.2620 C   0  0  0  0  0  0  0  0  0  0  0  0
    3.5850    0.1490   24.9280 C   0  0  0  0  0  0  0  0  0  0  0  0
    1.8520   -0.0050   25.0520 Cl  0  0  0  0  0  0  0  0  0  0  0  0
    4.3350   -0.9290   24.4750 C   0  0  0  0  0  0  0  0  0  0  0  0
    3.8280   -1.8540   24.2200 H   0  0  0  0  0  0  0  0  0  0  0  0
    3.5670    2.1900   25.6020 H   0  0  0  0  0  0  0  0  0  0  0  0
    6.0500    2.4180   25.3950 H   0  0  0  0  0  0  0  0  0  0  0  0
    7.3990    0.5170   24.5740 H   0  0  0  0  0  0  0  0  0  0  0  0
    6.7380   -2.6690   24.5700 H   0  0  0  0  0  0  0  0  0  0  0  0
    7.5550   -1.5650   23.5120 H   0  0  0  0  0  0  0  0  0  0  0  0
    5.6130   -2.1140   21.4530 C   0  0  0  0  0  0  0  0  0  0  0  0
    4.8030   -2.6430   20.7140 O   0  0  0  0  0  0  0  0  0  0  0  0
    6.4020   -0.8850   21.0400 C   0  0  0  0  0  0  0  0  0  0  0  0
    5.8020   -0.1870   19.8650 C   0  0  0  0  0  0  0  0  0  0  0  0
    6.2520   -0.4530   18.6010 C   0  0  0  0  0  0  0  0  0  0  0  0
    5.7870    0.1180   17.4590 N   0  0  0  0  0  0  0  0  0  0  0  0
    4.8110    0.9840   17.6000 C   0  0  0  0  0  0  0  0  0  0  0  0
    4.2330    1.3470   18.8490 C   0  0  0  0  0  0  0  0  0  0  0  0
    3.1870    2.2970   18.9470 C   0  0  0  0  0  0  0  0  0  0  0  0
    2.6530    2.6220   20.1640 C   0  0  0  0  0  0  0  0  0  0  0  0
    3.1440    2.0100   21.3420 C   0  0  0  0  0  0  0  0  0  0  0  0
    4.1600    1.0900   21.2810 C   0  0  0  0  0  0  0  0  0  0  0  0
    4.7340    0.7420   20.0250 C   0  0  0  0  0  0  0  0  0  0  0  0
    4.5390    0.6410   22.1990 H   0  0  0  0  0  0  0  0  0  0  0  0
    2.7170    2.2870   22.3050 H   0  0  0  0  0  0  0  0  0  0  0  0
    1.8540    3.3540   20.2370 H   0  0  0  0  0  0  0  0  0  0  0  0
    2.8310    2.7690   18.0340 H   0  0  0  0  0  0  0  0  0  0  0  0
    4.4290    1.4520   16.6930 H   0  0  0  0  0  0  0  0  0  0  0  0
    7.0540   -1.1790   18.4640 H   0  0  0  0  0  0  0  0  0  0  0  0
    7.4030   -1.2540   20.7800 H   0  0  0  0  0  0  0  0  0  0  0  0
    6.5140   -0.2150   21.8920 H   0  0  0  0  0  0  0  0  0  0  0  0
    5.0010   -4.3640   24.1290 C   0  0  0  0  0  0  0  0  0  0  0  0
    4.6800   -5.6930   24.3970 C   0  0  0  0  0  0  0  0  0  0  0  0
    4.2350   -5.9840   25.3460 H   0  0  0  0  0  0  0  0  0  0  0  0
    4.8360   -3.6000   24.8880 H   0  0  0  0  0  0  0  0  0  0  0  0
    6.2780   -4.6580   21.0030 H   0  0  0  0  0  0  0  0  0  0  0  0
    5.7820   -7.0650   21.4940 H   0  0  0  0  0  0  0  0  0  0  0  0
    4.6230   -8.6480   25.5500 H   0  0  0  0  0  0  0  0  0  0  0  0
    3.9510   -9.6080   24.2070 H   0  0  0  0  0  0  0  0  0  0  0  0
    3.1950   -8.0360   24.6700 H   0  0  0  0  0  0  0  0  0  0  0  0
  1  2  1  0  0  0  0
  1 49  1  0  0  0  0
  1 50  1  0  0  0  0
  1 51  1  0  0  0  0
  2  3  1  0  0  0  0
  3  4  2  0  0  0  0
  3 44  1  0  0  0  0
  4  5  1  0  0  0  0
  4 48  1  0  0  0  0
  5  6  2  0  0  0  0
  5 47  1  0  0  0  0
  6  7  1  0  0  0  0
  6 43  1  0  0  0  0
  7  8  1  0  0  0  0
  7 22  1  0  0  0  0
  8  9  1  0  0  0  0
  8 20  1  0  0  0  0
  8 21  1  0  0  0  0
  9 10  2  0  0  0  0
  9 15  1  0  0  0  0
 10 11  1  0  0  0  0
 10 19  1  0  0  0  0
 11 12  2  0  0  0  0
 11 18  1  0  0  0  0
 12 13  1  0  0  0  0
 12 17  1  0  0  0  0
 13 14  1  0  0  0  0
 13 15  2  0  0  0  0
 15 16  1  0  0  0  0
 22 23  2  0  0  0  0
 22 24  1  0  0  0  0
 24 25  1  0  0  0  0
 24 41  1  0  0  0  0
 24 42  1  0  0  0  0
 25 26  2  0  0  0  0
 25 34  1  0  0  0  0
 26 27  1  0  0  0  0
 26 40  1  0  0  0  0
 27 28  2  0  0  0  0
 28 29  1  0  0  0  0
 28 39  1  0  0  0  0
 29 30  2  0  0  0  0
 29 34  1  0  0  0  0
 30 31  1  0  0  0  0
 30 38  1  0  0  0  0
 31 32  2  0  0  0  0
 31 37  1  0  0  0  0
 32 33  1  0  0  0  0
 32 36  1  0  0  0  0
 33 34  2  0  0  0  0
 33 35  1  0  0  0  0
 43 44  2  0  0  0  0
 43 46  1  0  0  0  0
 44 45  1  0  0  0  0
M  END
>  <MODEL>
       5

$$$$
best_conformers_1.pdb
 OpenBabel02042510453D

 51 54  0  0  0  0  0  0  0  0999 V2000
    4.3690   -8.6330   24.4970 C   0  0  0  0  0  0  0  0  0  0  0  0
    5.3580   -8.0640   23.6560 O   0  0  0  0  0  0  0  0  0  0  0  0
    5.2950   -6.7330   23.4030 C   0  0  0  0  0  0  0  0  0  0  0  0
    4.8620   -5.7920   24.3370 C   0  0  0  0  0  0  0  0  0  0  0  0
    5.0820   -4.4400   24.0920 C   0  0  0  0  0  0  0  0  0  0  0  0
    5.6330   -4.0210   22.8850 C   0  0  0  0  0  0  0  0  0  0  0  0
    5.9610   -2.6550   22.6880 N   0  0  0  0  0  0  0  0  0  0  0  0
    6.5450   -1.9160   23.8040 C   0  0  0  0  0  0  0  0  0  0  0  0
    5.6690   -0.7940   24.3270 C   0  0  0  0  0  0  0  0  0  0  0  0
    4.2990   -0.9760   24.5170 C   0  0  0  0  0  0  0  0  0  0  0  0
    3.5090    0.0760   24.9620 C   0  0  0  0  0  0  0  0  0  0  0  0
    4.0650    1.3250   25.2230 C   0  0  0  0  0  0  0  0  0  0  0  0
    5.4350    1.4900   25.0570 C   0  0  0  0  0  0  0  0  0  0  0  0
    6.1600    3.0390   25.3900 Cl  0  0  0  0  0  0  0  0  0  0  0  0
    6.2380    0.4430   24.6220 C   0  0  0  0  0  0  0  0  0  0  0  0
    7.3050    0.6070   24.4940 H   0  0  0  0  0  0  0  0  0  0  0  0
    3.4530    2.1590   25.5460 H   0  0  0  0  0  0  0  0  0  0  0  0
    2.4440   -0.0770   25.1040 H   0  0  0  0  0  0  0  0  0  0  0  0
    3.8330   -1.9340   24.3070 H   0  0  0  0  0  0  0  0  0  0  0  0
    6.7480   -2.6340   24.6010 H   0  0  0  0  0  0  0  0  0  0  0  0
    7.5320   -1.5230   23.5360 H   0  0  0  0  0  0  0  0  0  0  0  0
    5.6250   -2.0900   21.4640 C   0  0  0  0  0  0  0  0  0  0  0  0
    4.7910   -2.5980   20.7360 O   0  0  0  0  0  0  0  0  0  0  0  0
    6.4250   -0.8660   21.0330 C   0  0  0  0  0  0  0  0  0  0  0  0
    5.8110   -0.1770   19.8580 C   0  0  0  0  0  0  0  0  0  0  0  0
    6.2490   -0.4470   18.5890 C   0  0  0  0  0  0  0  0  0  0  0  0
    5.7760    0.1230   17.4490 N   0  0  0  0  0  0  0  0  0  0  0  0
    4.8030    0.9930   17.5950 C   0  0  0  0  0  0  0  0  0  0  0  0
    4.2340    1.3560   18.8500 C   0  0  0  0  0  0  0  0  0  0  0  0
    3.1860    2.3070   18.9500 C   0  0  0  0  0  0  0  0  0  0  0  0
    2.6570    2.6290   20.1690 C   0  0  0  0  0  0  0  0  0  0  0  0
    3.1500    2.0120   21.3430 C   0  0  0  0  0  0  0  0  0  0  0  0
    4.1640    1.0870   21.2820 C   0  0  0  0  0  0  0  0  0  0  0  0
    4.7400    0.7480   20.0220 C   0  0  0  0  0  0  0  0  0  0  0  0
    4.5280    0.6230   22.1970 H   0  0  0  0  0  0  0  0  0  0  0  0
    2.7280    2.2870   22.3080 H   0  0  0  0  0  0  0  0  0  0  0  0
    1.8560    3.3620   20.2450 H   0  0  0  0  0  0  0  0  0  0  0  0
    2.8230    2.7770   18.0400 H   0  0  0  0  0  0  0  0  0  0  0  0
    4.4160    1.4650   16.6900 H   0  0  0  0  0  0  0  0  0  0  0  0
    7.0450   -1.1760   18.4480 H   0  0  0  0  0  0  0  0  0  0  0  0
    6.5520   -0.1850   21.8740 H   0  0  0  0  0  0  0  0  0  0  0  0
    7.4240   -1.2410   20.7660 H   0  0  0  0  0  0  0  0  0  0  0  0
    5.9420   -4.9640   21.9080 C   0  0  0  0  0  0  0  0  0  0  0  0
    5.7760   -6.3120   22.1590 C   0  0  0  0  0  0  0  0  0  0  0  0
    6.0200   -7.0480   21.4020 H   0  0  0  0  0  0  0  0  0  0  0  0
    6.3520   -4.6290   20.9610 H   0  0  0  0  0  0  0  0  0  0  0  0
    4.8500   -3.7030   24.8580 H   0  0  0  0  0  0  0  0  0  0  0  0
    4.4140   -6.0990   25.2770 H   0  0  0  0  0  0  0  0  0  0  0  0
    4.7650   -8.8570   25.4980 H   0  0  0  0  0  0  0  0  0  0  0  0
    4.0400   -9.5770   24.0480 H   0  0  0  0  0  0  0  0  0  0  0  0
    3.5020   -7.9710   24.5680 H   0  0  0  0  0  0  0  0  0  0  0  0
  1  2  1  0  0  0  0
  1 49  1  0  0  0  0
  1 50  1  0  0  0  0
  1 51  1  0  0  0  0
  2  3  1  0  0  0  0
  3  4  2  0  0  0  0
  3 44  1  0  0  0  0
  4  5  1  0  0  0  0
  4 48  1  0  0  0  0
  5  6  2  0  0  0  0
  5 47  1  0  0  0  0
  6  7  1  0  0  0  0
  6 43  1  0  0  0  0
  7  8  1  0  0  0  0
  7 22  1  0  0  0  0
  8  9  1  0  0  0  0
  8 20  1  0  0  0  0
  8 21  1  0  0  0  0
  9 10  2  0  0  0  0
  9 15  1  0  0  0  0
 10 11  1  0  0  0  0
 10 19  1  0  0  0  0
 11 12  2  0  0  0  0
 11 18  1  0  0  0  0
 12 13  1  0  0  0  0
 12 17  1  0  0  0  0
 13 14  1  0  0  0  0
 13 15  2  0  0  0  0
 15 16  1  0  0  0  0
 22 23  2  0  0  0  0
 22 24  1  0  0  0  0
 24 25  1  0  0  0  0
 24 41  1  0  0  0  0
 24 42  1  0  0  0  0
 25 26  2  0  0  0  0
 25 34  1  0  0  0  0
 26 27  1  0  0  0  0
 26 40  1  0  0  0  0
 27 28  2  0  0  0  0
 28 29  1  0  0  0  0
 28 39  1  0  0  0  0
 29 30  2  0  0  0  0
 29 34  1  0  0  0  0
 30 31  1  0  0  0  0
 30 38  1  0  0  0  0
 31 32  2  0  0  0  0
 31 37  1  0  0  0  0
 32 33  1  0  0  0  0
 32 36  1  0  0  0  0
 33 34  2  0  0  0  0
 33 35  1  0  0  0  0
 43 44  2  0  0  0  0
 43 46  1  0  0  0  0
 44 45  1  0  0  0  0
M  END
>  <MODEL>
       6

$$$$
best_conformers_1.pdb
 OpenBabel02042510453D

 51 54  0  0  0  0  0  0  0  0999 V2000
    2.5380   -7.9680   24.1110 C   0  0  0  0  0  0  0  0  0  0  0  0
    2.5210   -6.6930   24.7070 O   0  0  0  0  0  0  0  0  0  0  0  0
    3.3590   -5.7400   24.2200 C   0  0  0  0  0  0  0  0  0  0  0  0
    3.2980   -4.5220   24.9020 C   0  0  0  0  0  0  0  0  0  0  0  0
    4.0950   -3.4640   24.5050 C   0  0  0  0  0  0  0  0  0  0  0  0
    4.8980   -3.5660   23.3620 C   0  0  0  0  0  0  0  0  0  0  0  0
    5.6140   -2.4160   22.8980 N   0  0  0  0  0  0  0  0  0  0  0  0
    6.5250   -1.7550   23.8270 C   0  0  0  0  0  0  0  0  0  0  0  0
    7.9750   -2.0160   23.5090 C   0  0  0  0  0  0  0  0  0  0  0  0
    8.3620   -3.3520   23.5420 C   0  0  0  0  0  0  0  0  0  0  0  0
    9.6930   -3.7070   23.3950 C   0  0  0  0  0  0  0  0  0  0  0  0
   10.6370   -2.7640   23.0010 C   0  0  0  0  0  0  0  0  0  0  0  0
   10.2410   -1.4350   22.9460 C   0  0  0  0  0  0  0  0  0  0  0  0
   11.4310   -0.2190   22.5640 Cl  0  0  0  0  0  0  0  0  0  0  0  0
    8.9360   -1.0430   23.2490 C   0  0  0  0  0  0  0  0  0  0  0  0
    8.7350    0.0230   23.3200 H   0  0  0  0  0  0  0  0  0  0  0  0
   11.6600   -3.0250   22.7310 H   0  0  0  0  0  0  0  0  0  0  0  0
    9.9870   -4.7070   23.6720 H   0  0  0  0  0  0  0  0  0  0  0  0
    7.5930   -4.1080   23.7000 H   0  0  0  0  0  0  0  0  0  0  0  0
    6.3180   -0.6890   23.9240 H   0  0  0  0  0  0  0  0  0  0  0  0
    6.3380   -2.1880   24.8110 H   0  0  0  0  0  0  0  0  0  0  0  0
    5.5070   -2.0700   21.5620 C   0  0  0  0  0  0  0  0  0  0  0  0
    4.7660   -2.6690   20.7980 O   0  0  0  0  0  0  0  0  0  0  0  0
    6.3660   -0.9130   21.0470 C   0  0  0  0  0  0  0  0  0  0  0  0
    5.7820   -0.2000   19.8640 C   0  0  0  0  0  0  0  0  0  0  0  0
    6.2390   -0.4580   18.6010 C   0  0  0  0  0  0  0  0  0  0  0  0
    5.7810    0.1210   17.4580 N   0  0  0  0  0  0  0  0  0  0  0  0
    4.8100    0.9920   17.5930 C   0  0  0  0  0  0  0  0  0  0  0  0
    4.2320    1.3610   18.8380 C   0  0  0  0  0  0  0  0  0  0  0  0
    3.1840    2.3110   18.9350 C   0  0  0  0  0  0  0  0  0  0  0  0
    2.6500    2.6350   20.1520 C   0  0  0  0  0  0  0  0  0  0  0  0
    3.1430    2.0260   21.3300 C   0  0  0  0  0  0  0  0  0  0  0  0
    4.1570    1.1070   21.2630 C   0  0  0  0  0  0  0  0  0  0  0  0
    4.7300    0.7490   20.0150 C   0  0  0  0  0  0  0  0  0  0  0  0
    4.5340    0.6500   22.1740 H   0  0  0  0  0  0  0  0  0  0  0  0
    2.7170    2.2930   22.2930 H   0  0  0  0  0  0  0  0  0  0  0  0
    1.8470    3.3640   20.2260 H   0  0  0  0  0  0  0  0  0  0  0  0
    2.8210    2.7790   18.0220 H   0  0  0  0  0  0  0  0  0  0  0  0
    4.4290    1.4550   16.6810 H   0  0  0  0  0  0  0  0  0  0  0  0
    7.0390   -1.1840   18.4550 H   0  0  0  0  0  0  0  0  0  0  0  0
    7.3230   -1.3630   20.7590 H   0  0  0  0  0  0  0  0  0  0  0  0
    6.5820   -0.2030   21.8480 H   0  0  0  0  0  0  0  0  0  0  0  0
    4.9890   -4.7970   22.7090 C   0  0  0  0  0  0  0  0  0  0  0  0
    4.2260   -5.8860   23.1380 C   0  0  0  0  0  0  0  0  0  0  0  0
    4.2860   -6.8320   22.6060 H   0  0  0  0  0  0  0  0  0  0  0  0
    5.6280   -4.9190   21.8350 H   0  0  0  0  0  0  0  0  0  0  0  0
    4.0220   -2.5080   25.0240 H   0  0  0  0  0  0  0  0  0  0  0  0
    2.5980   -4.4510   25.7290 H   0  0  0  0  0  0  0  0  0  0  0  0
    3.5320   -8.4240   24.1760 H   0  0  0  0  0  0  0  0  0  0  0  0
    2.2300   -7.9260   23.0590 H   0  0  0  0  0  0  0  0  0  0  0  0
    1.8220   -8.5650   24.6770 H   0  0  0  0  0  0  0  0  0  0  0  0
  1  2  1  0  0  0  0
  1 49  1  0  0  0  0
  1 50  1  0  0  0  0
  1 51  1  0  0  0  0
  2  3  1  0  0  0  0
  3  4  2  0  0  0  0
  3 44  1  0  0  0  0
  4  5  1  0  0  0  0
  4 48  1  0  0  0  0
  5  6  2  0  0  0  0
  5 47  1  0  0  0  0
  6  7  1  0  0  0  0
  6 43  1  0  0  0  0
  7  8  1  0  0  0  0
  7 22  1  0  0  0  0
  8  9  1  0  0  0  0
  8 20  1  0  0  0  0
  8 21  1  0  0  0  0
  9 10  2  0  0  0  0
  9 15  1  0  0  0  0
 10 11  1  0  0  0  0
 10 19  1  0  0  0  0
 11 12  2  0  0  0  0
 11 18  1  0  0  0  0
 12 13  1  0  0  0  0
 12 17  1  0  0  0  0
 13 14  1  0  0  0  0
 13 15  2  0  0  0  0
 15 16  1  0  0  0  0
 22 23  2  0  0  0  0
 22 24  1  0  0  0  0
 24 25  1  0  0  0  0
 24 41  1  0  0  0  0
 24 42  1  0  0  0  0
 25 26  2  0  0  0  0
 25 34  1  0  0  0  0
 26 27  1  0  0  0  0
 26 40  1  0  0  0  0
 27 28  2  0  0  0  0
 28 29  1  0  0  0  0
 28 39  1  0  0  0  0
 29 30  2  0  0  0  0
 29 34  1  0  0  0  0
 30 31  1  0  0  0  0
 30 38  1  0  0  0  0
 31 32  2  0  0  0  0
 31 37  1  0  0  0  0
 32 33  1  0  0  0  0
 32 36  1  0  0  0  0
 33 34  2  0  0  0  0
 33 35  1  0  0  0  0
 43 44  2  0  0  0  0
 43 46  1  0  0  0  0
 44 45  1  0  0  0  0
M  END
>  <MODEL>
       7

$$$$
best_conformers_1.pdb
 OpenBabel02042510453D

 51 54  0  0  0  0  0  0  0  0999 V2000
    1.5540   -6.6210   25.6360 C   0  0  0  0  0  0  0  0  0  0  0  0
    2.4820   -6.7150   24.5830 O   0  0  0  0  0  0  0  0  0  0  0  0
    3.2440   -5.6250   24.2980 C   0  0  0  0  0  0  0  0  0  0  0  0
    4.1260   -5.8050   23.2300 C   0  0  0  0  0  0  0  0  0  0  0  0
    4.9120   -4.7600   22.7800 C   0  0  0  0  0  0  0  0  0  0  0  0
    4.8390   -3.5090   23.4090 C   0  0  0  0  0  0  0  0  0  0  0  0
    5.5780   -2.3880   22.9180 N   0  0  0  0  0  0  0  0  0  0  0  0
    6.4910   -1.7280   23.8470 C   0  0  0  0  0  0  0  0  0  0  0  0
    7.9430   -2.0150   23.5500 C   0  0  0  0  0  0  0  0  0  0  0  0
    8.3150   -3.3560   23.5900 C   0  0  0  0  0  0  0  0  0  0  0  0
    9.6430   -3.7210   23.4360 C   0  0  0  0  0  0  0  0  0  0  0  0
   10.6020   -2.7800   23.0670 C   0  0  0  0  0  0  0  0  0  0  0  0
   10.2160   -1.4500   23.0130 C   0  0  0  0  0  0  0  0  0  0  0  0
   11.4180   -0.2470   22.6420 Cl  0  0  0  0  0  0  0  0  0  0  0  0
    8.9130   -1.0500   23.2950 C   0  0  0  0  0  0  0  0  0  0  0  0
    8.7170    0.0200   23.3550 H   0  0  0  0  0  0  0  0  0  0  0  0
   11.6210   -3.0570   22.8130 H   0  0  0  0  0  0  0  0  0  0  0  0
    9.9380   -4.7310   23.6760 H   0  0  0  0  0  0  0  0  0  0  0  0
    7.5330   -4.0990   23.7480 H   0  0  0  0  0  0  0  0  0  0  0  0
    6.2850   -2.1360   24.8380 H   0  0  0  0  0  0  0  0  0  0  0  0
    6.2870   -0.6560   23.9210 H   0  0  0  0  0  0  0  0  0  0  0  0
    5.4920   -2.0760   21.5680 C   0  0  0  0  0  0  0  0  0  0  0  0
    4.7730   -2.6920   20.8060 O   0  0  0  0  0  0  0  0  0  0  0  0
    6.3570   -0.9240   21.0510 C   0  0  0  0  0  0  0  0  0  0  0  0
    5.7780   -0.2080   19.8660 C   0  0  0  0  0  0  0  0  0  0  0  0
    6.2380   -0.4610   18.6050 C   0  0  0  0  0  0  0  0  0  0  0  0
    5.7850    0.1190   17.4610 N   0  0  0  0  0  0  0  0  0  0  0  0
    4.8120    0.9900   17.5940 C   0  0  0  0  0  0  0  0  0  0  0  0
    4.2330    1.3580   18.8390 C   0  0  0  0  0  0  0  0  0  0  0  0
    3.1850    2.3100   18.9330 C   0  0  0  0  0  0  0  0  0  0  0  0
    2.6510    2.6340   20.1520 C   0  0  0  0  0  0  0  0  0  0  0  0
    3.1420    2.0260   21.3280 C   0  0  0  0  0  0  0  0  0  0  0  0
    4.1560    1.1050   21.2640 C   0  0  0  0  0  0  0  0  0  0  0  0
    4.7280    0.7450   20.0150 C   0  0  0  0  0  0  0  0  0  0  0  0
    4.5310    0.6510   22.1760 H   0  0  0  0  0  0  0  0  0  0  0  0
    2.7160    2.2940   22.2920 H   0  0  0  0  0  0  0  0  0  0  0  0
    1.8490    3.3630   20.2230 H   0  0  0  0  0  0  0  0  0  0  0  0
    2.8230    2.7790   18.0210 H   0  0  0  0  0  0  0  0  0  0  0  0
    4.4330    1.4520   16.6810 H   0  0  0  0  0  0  0  0  0  0  0  0
    7.0410   -1.1840   18.4630 H   0  0  0  0  0  0  0  0  0  0  0  0
    7.3150   -1.3780   20.7680 H   0  0  0  0  0  0  0  0  0  0  0  0
    6.5680   -0.2110   21.8510 H   0  0  0  0  0  0  0  0  0  0  0  0
    4.0420   -3.3680   24.5480 C   0  0  0  0  0  0  0  0  0  0  0  0
    3.1990   -4.4000   24.9640 C   0  0  0  0  0  0  0  0  0  0  0  0
    2.5010   -4.2390   25.7830 H   0  0  0  0  0  0  0  0  0  0  0  0
    3.9950   -2.4030   25.0580 H   0  0  0  0  0  0  0  0  0  0  0  0
    5.5530   -4.9110   21.9130 H   0  0  0  0  0  0  0  0  0  0  0  0
    4.1210   -6.7800   22.7480 H   0  0  0  0  0  0  0  0  0  0  0  0
    2.0560   -6.3700   26.5780 H   0  0  0  0  0  0  0  0  0  0  0  0
    0.7830   -5.8680   25.4270 H   0  0  0  0  0  0  0  0  0  0  0  0
    1.0890   -7.6050   25.7170 H   0  0  0  0  0  0  0  0  0  0  0  0
  1  2  1  0  0  0  0
  1 49  1  0  0  0  0
  1 50  1  0  0  0  0
  1 51  1  0  0  0  0
  2  3  1  0  0  0  0
  3  4  2  0  0  0  0
  3 44  1  0  0  0  0
  4  5  1  0  0  0  0
  4 48  1  0  0  0  0
  5  6  2  0  0  0  0
  5 47  1  0  0  0  0
  6  7  1  0  0  0  0
  6 43  1  0  0  0  0
  7  8  1  0  0  0  0
  7 22  1  0  0  0  0
  8  9  1  0  0  0  0
  8 20  1  0  0  0  0
  8 21  1  0  0  0  0
  9 10  2  0  0  0  0
  9 15  1  0  0  0  0
 10 11  1  0  0  0  0
 10 19  1  0  0  0  0
 11 12  2  0  0  0  0
 11 18  1  0  0  0  0
 12 13  1  0  0  0  0
 12 17  1  0  0  0  0
 13 14  1  0  0  0  0
 13 15  2  0  0  0  0
 15 16  1  0  0  0  0
 22 23  2  0  0  0  0
 22 24  1  0  0  0  0
 24 25  1  0  0  0  0
 24 41  1  0  0  0  0
 24 42  1  0  0  0  0
 25 26  2  0  0  0  0
 25 34  1  0  0  0  0
 26 27  1  0  0  0  0
 26 40  1  0  0  0  0
 27 28  2  0  0  0  0
 28 29  1  0  0  0  0
 28 39  1  0  0  0  0
 29 30  2  0  0  0  0
 29 34  1  0  0  0  0
 30 31  1  0  0  0  0
 30 38  1  0  0  0  0
 31 32  2  0  0  0  0
 31 37  1  0  0  0  0
 32 33  1  0  0  0  0
 32 36  1  0  0  0  0
 33 34  2  0  0  0  0
 33 35  1  0  0  0  0
 43 44  2  0  0  0  0
 43 46  1  0  0  0  0
 44 45  1  0  0  0  0
M  END
>  <MODEL>
       8

$$$$
best_conformers_1.pdb
 OpenBabel02042510453D

 51 54  0  0  0  0  0  0  0  0999 V2000
    1.3260   -6.3770   25.6650 C   0  0  0  0  0  0  0  0  0  0  0  0
    2.2830   -6.5360   24.6460 O   0  0  0  0  0  0  0  0  0  0  0  0
    3.1040   -5.4880   24.3680 C   0  0  0  0  0  0  0  0  0  0  0  0
    3.1010   -4.2550   25.0200 C   0  0  0  0  0  0  0  0  0  0  0  0
    3.9960   -3.2680   24.6010 C   0  0  0  0  0  0  0  0  0  0  0  0
    4.7820   -3.4540   23.4620 C   0  0  0  0  0  0  0  0  0  0  0  0
    5.5420   -2.3580   22.9450 N   0  0  0  0  0  0  0  0  0  0  0  0
    6.4590   -1.6990   23.8680 C   0  0  0  0  0  0  0  0  0  0  0  0
    7.9050   -2.0320   23.5910 C   0  0  0  0  0  0  0  0  0  0  0  0
    8.2430   -3.3820   23.6380 C   0  0  0  0  0  0  0  0  0  0  0  0
    9.5640   -3.7770   23.4880 C   0  0  0  0  0  0  0  0  0  0  0  0
   10.5430   -2.8570   23.1330 C   0  0  0  0  0  0  0  0  0  0  0  0
   10.1900   -1.5170   23.0710 C   0  0  0  0  0  0  0  0  0  0  0  0
   11.4200   -0.3380   22.7090 Cl  0  0  0  0  0  0  0  0  0  0  0  0
    8.8940   -1.0860   23.3390 C   0  0  0  0  0  0  0  0  0  0  0  0
    8.7140   -0.0140   23.3790 H   0  0  0  0  0  0  0  0  0  0  0  0
   11.5620   -3.1540   22.8980 H   0  0  0  0  0  0  0  0  0  0  0  0
    9.8310   -4.8010   23.7040 H   0  0  0  0  0  0  0  0  0  0  0  0
    7.4440   -4.1060   23.8020 H   0  0  0  0  0  0  0  0  0  0  0  0
    6.2240   -2.0780   24.8650 H   0  0  0  0  0  0  0  0  0  0  0  0
    6.2810   -0.6220   23.9130 H   0  0  0  0  0  0  0  0  0  0  0  0
    5.4770   -2.0780   21.5860 C   0  0  0  0  0  0  0  0  0  0  0  0
    4.7740   -2.7200   20.8260 O   0  0  0  0  0  0  0  0  0  0  0  0
    6.3460   -0.9330   21.0570 C   0  0  0  0  0  0  0  0  0  0  0  0
    5.7710   -0.2160   19.8710 C   0  0  0  0  0  0  0  0  0  0  0  0
    6.2380   -0.4650   18.6100 C   0  0  0  0  0  0  0  0  0  0  0  0
    5.7880    0.1180   17.4670 N   0  0  0  0  0  0  0  0  0  0  0  0
    4.8150    0.9880   17.5950 C   0  0  0  0  0  0  0  0  0  0  0  0
    4.2330    1.3560   18.8400 C   0  0  0  0  0  0  0  0  0  0  0  0
    3.1860    2.3090   18.9330 C   0  0  0  0  0  0  0  0  0  0  0  0
    2.6510    2.6340   20.1500 C   0  0  0  0  0  0  0  0  0  0  0  0
    3.1410    2.0260   21.3280 C   0  0  0  0  0  0  0  0  0  0  0  0
    4.1550    1.1040   21.2640 C   0  0  0  0  0  0  0  0  0  0  0  0
    4.7260    0.7420   20.0160 C   0  0  0  0  0  0  0  0  0  0  0  0
    4.5300    0.6510   22.1770 H   0  0  0  0  0  0  0  0  0  0  0  0
    2.7170    2.2950   22.2920 H   0  0  0  0  0  0  0  0  0  0  0  0
    1.8480    3.3630   20.2220 H   0  0  0  0  0  0  0  0  0  0  0  0
    2.8250    2.7780   18.0200 H   0  0  0  0  0  0  0  0  0  0  0  0
    4.4370    1.4500   16.6820 H   0  0  0  0  0  0  0  0  0  0  0  0
    7.0430   -1.1850   18.4680 H   0  0  0  0  0  0  0  0  0  0  0  0
    6.5620   -0.2200   21.8540 H   0  0  0  0  0  0  0  0  0  0  0  0
    7.3010   -1.3950   20.7750 H   0  0  0  0  0  0  0  0  0  0  0  0
    4.8190   -4.7160   22.8560 C   0  0  0  0  0  0  0  0  0  0  0  0
    3.9980   -5.7260   23.3230 C   0  0  0  0  0  0  0  0  0  0  0  0
    3.9400   -6.7030   22.8480 H   0  0  0  0  0  0  0  0  0  0  0  0
    5.4520   -4.9060   21.9910 H   0  0  0  0  0  0  0  0  0  0  0  0
    3.9910   -2.2960   25.1020 H   0  0  0  0  0  0  0  0  0  0  0  0
    2.3960   -4.0460   25.8210 H   0  0  0  0  0  0  0  0  0  0  0  0
    0.5830   -5.6090   25.4110 H   0  0  0  0  0  0  0  0  0  0  0  0
    1.8100   -6.1110   26.6120 H   0  0  0  0  0  0  0  0  0  0  0  0
    0.8310   -7.3460   25.7610 H   0  0  0  0  0  0  0  0  0  0  0  0
  1  2  1  0  0  0  0
  1 49  1  0  0  0  0
  1 50  1  0  0  0  0
  1 51  1  0  0  0  0
  2  3  1  0  0  0  0
  3  4  2  0  0  0  0
  3 44  1  0  0  0  0
  4  5  1  0  0  0  0
  4 48  1  0  0  0  0
  5  6  2  0  0  0  0
  5 47  1  0  0  0  0
  6  7  1  0  0  0  0
  6 43  1  0  0  0  0
  7  8  1  0  0  0  0
  7 22  1  0  0  0  0
  8  9  1  0  0  0  0
  8 20  1  0  0  0  0
  8 21  1  0  0  0  0
  9 10  2  0  0  0  0
  9 15  1  0  0  0  0
 10 11  1  0  0  0  0
 10 19  1  0  0  0  0
 11 12  2  0  0  0  0
 11 18  1  0  0  0  0
 12 13  1  0  0  0  0
 12 17  1  0  0  0  0
 13 14  1  0  0  0  0
 13 15  2  0  0  0  0
 15 16  1  0  0  0  0
 22 23  2  0  0  0  0
 22 24  1  0  0  0  0
 24 25  1  0  0  0  0
 24 41  1  0  0  0  0
 24 42  1  0  0  0  0
 25 26  2  0  0  0  0
 25 34  1  0  0  0  0
 26 27  1  0  0  0  0
 26 40  1  0  0  0  0
 27 28  2  0  0  0  0
 28 29  1  0  0  0  0
 28 39  1  0  0  0  0
 29 30  2  0  0  0  0
 29 34  1  0  0  0  0
 30 31  1  0  0  0  0
 30 38  1  0  0  0  0
 31 32  2  0  0  0  0
 31 37  1  0  0  0  0
 32 33  1  0  0  0  0
 32 36  1  0  0  0  0
 33 34  2  0  0  0  0
 33 35  1  0  0  0  0
 43 44  2  0  0  0  0
 43 46  1  0  0  0  0
 44 45  1  0  0  0  0
M  END
>  <MODEL>
       9

$$$$
