best_conformers_89.pdb
 OpenBabel02042510453D

 38 40  0  0  0  0  0  0  0  0999 V2000
    4.8480   -2.6510   20.7980 O   0  0  0  0  0  0  0  0  0  0  0  0
    5.5360   -2.0260   21.5840 C   0  0  0  0  0  0  0  0  0  0  0  0
    6.4220   -0.8700   21.0500 C   0  0  0  0  0  0  0  0  0  0  0  0
    5.8050   -0.1770   19.8520 C   0  0  0  0  0  0  0  0  0  0  0  0
    6.2290   -0.4450   18.5750 C   0  0  0  0  0  0  0  0  0  0  0  0
    5.7530    0.1350   17.4360 N   0  0  0  0  0  0  0  0  0  0  0  0
    4.7880    1.0120   17.5820 C   0  0  0  0  0  0  0  0  0  0  0  0
    4.2280    1.3780   18.8350 C   0  0  0  0  0  0  0  0  0  0  0  0
    3.1750    2.3230   18.9410 C   0  0  0  0  0  0  0  0  0  0  0  0
    2.6430    2.6420   20.1610 C   0  0  0  0  0  0  0  0  0  0  0  0
    3.1470    2.0270   21.3310 C   0  0  0  0  0  0  0  0  0  0  0  0
    4.1700    1.1140   21.2570 C   0  0  0  0  0  0  0  0  0  0  0  0
    4.7450    0.7670   20.0060 C   0  0  0  0  0  0  0  0  0  0  0  0
    4.5420    0.6510   22.1680 H   0  0  0  0  0  0  0  0  0  0  0  0
    2.7220    2.2870   22.2960 H   0  0  0  0  0  0  0  0  0  0  0  0
    1.8370    3.3680   20.2430 H   0  0  0  0  0  0  0  0  0  0  0  0
    2.7990    2.7900   18.0330 H   0  0  0  0  0  0  0  0  0  0  0  0
    4.3990    1.4870   16.6790 H   0  0  0  0  0  0  0  0  0  0  0  0
    7.0180   -1.1790   18.4030 H   0  0  0  0  0  0  0  0  0  0  0  0
    6.6920   -0.1450   21.8260 H   0  0  0  0  0  0  0  0  0  0  0  0
    7.3720   -1.3220   20.7310 H   0  0  0  0  0  0  0  0  0  0  0  0
    5.5560   -2.3700   22.9250 N   0  0  0  0  0  0  0  0  0  0  0  0
    6.3270   -1.6420   23.9250 C   0  0  0  0  0  0  0  0  0  0  0  0
    7.8110   -1.9230   23.8950 C   0  0  0  0  0  0  0  0  0  0  0  0
    8.3140   -3.1430   24.0640 C   0  0  0  0  0  0  0  0  0  0  0  0
    7.4780   -4.3690   24.3550 C   0  0  0  0  0  0  0  0  0  0  0  0
    6.4300   -4.7030   23.2790 C   0  0  0  0  0  0  0  0  0  0  0  0
    5.2240   -3.7580   23.2610 C   0  0  0  0  0  0  0  0  0  0  0  0
    4.7710   -3.7580   24.2570 H   0  0  0  0  0  0  0  0  0  0  0  0
    4.4710   -4.1030   22.5510 H   0  0  0  0  0  0  0  0  0  0  0  0
    6.0770   -5.7340   23.4290 H   0  0  0  0  0  0  0  0  0  0  0  0
    6.9060   -4.6850   22.2950 H   0  0  0  0  0  0  0  0  0  0  0  0
    8.1420   -5.2300   24.4880 H   0  0  0  0  0  0  0  0  0  0  0  0
    6.9560   -4.2440   25.3140 H   0  0  0  0  0  0  0  0  0  0  0  0
    9.3880   -3.2830   23.9460 H   0  0  0  0  0  0  0  0  0  0  0  0
    8.4800   -1.0840   23.7000 H   0  0  0  0  0  0  0  0  0  0  0  0
    5.9230   -1.9420   24.8970 H   0  0  0  0  0  0  0  0  0  0  0  0
    6.1180   -0.5740   23.8430 H   0  0  0  0  0  0  0  0  0  0  0  0
  1  2  2  0  0  0  0
  2  3  1  0  0  0  0
  2 22  1  0  0  0  0
  3  4  1  0  0  0  0
  3 20  1  0  0  0  0
  3 21  1  0  0  0  0
  4  5  2  0  0  0  0
  4 13  1  0  0  0  0
  5  6  1  0  0  0  0
  5 19  1  0  0  0  0
  6  7  2  0  0  0  0
  7  8  1  0  0  0  0
  7 18  1  0  0  0  0
  8  9  2  0  0  0  0
  8 13  1  0  0  0  0
  9 10  1  0  0  0  0
  9 17  1  0  0  0  0
 10 11  2  0  0  0  0
 10 16  1  0  0  0  0
 11 12  1  0  0  0  0
 11 15  1  0  0  0  0
 12 13  2  0  0  0  0
 12 14  1  0  0  0  0
 22 23  1  0  0  0  0
 22 28  1  0  0  0  0
 23 24  1  0  0  0  0
 23 37  1  0  0  0  0
 23 38  1  0  0  0  0
 24 25  2  0  0  0  0
 24 36  1  0  0  0  0
 25 26  1  0  0  0  0
 25 35  1  0  0  0  0
 26 27  1  0  0  0  0
 26 33  1  0  0  0  0
 26 34  1  0  0  0  0
 27 28  1  0  0  0  0
 27 31  1  0  0  0  0
 27 32  1  0  0  0  0
 28 29  1  0  0  0  0
 28 30  1  0  0  0  0
M  END
>  <MODEL>
       1

$$$$
best_conformers_89.pdb
 OpenBabel02042510453D

 38 40  0  0  0  0  0  0  0  0999 V2000
    7.7140    1.1950   21.3830 O   0  0  0  0  0  0  0  0  0  0  0  0
    7.4030    0.1140   21.8450 C   0  0  0  0  0  0  0  0  0  0  0  0
    6.4770   -0.8380   21.0480 C   0  0  0  0  0  0  0  0  0  0  0  0
    5.8170   -0.1730   19.8560 C   0  0  0  0  0  0  0  0  0  0  0  0
    6.2370   -0.4380   18.5780 C   0  0  0  0  0  0  0  0  0  0  0  0
    5.7560    0.1370   17.4410 N   0  0  0  0  0  0  0  0  0  0  0  0
    4.7880    1.0110   17.5830 C   0  0  0  0  0  0  0  0  0  0  0  0
    4.2320    1.3790   18.8370 C   0  0  0  0  0  0  0  0  0  0  0  0
    3.1810    2.3280   18.9410 C   0  0  0  0  0  0  0  0  0  0  0  0
    2.6600    2.6590   20.1640 C   0  0  0  0  0  0  0  0  0  0  0  0
    3.1720    2.0540   21.3340 C   0  0  0  0  0  0  0  0  0  0  0  0
    4.1930    1.1370   21.2610 C   0  0  0  0  0  0  0  0  0  0  0  0
    4.7560    0.7740   20.0090 C   0  0  0  0  0  0  0  0  0  0  0  0
    4.5810    0.6870   22.1710 H   0  0  0  0  0  0  0  0  0  0  0  0
    2.7560    2.3260   22.2990 H   0  0  0  0  0  0  0  0  0  0  0  0
    1.8570    3.3890   20.2440 H   0  0  0  0  0  0  0  0  0  0  0  0
    2.8010    2.7910   18.0320 H   0  0  0  0  0  0  0  0  0  0  0  0
    4.3980    1.4860   16.6800 H   0  0  0  0  0  0  0  0  0  0  0  0
    7.0260   -1.1700   18.4030 H   0  0  0  0  0  0  0  0  0  0  0  0
    5.7170   -1.2680   21.7150 H   0  0  0  0  0  0  0  0  0  0  0  0
    7.0800   -1.6870   20.6930 H   0  0  0  0  0  0  0  0  0  0  0  0
    7.8390   -0.2860   23.1010 N   0  0  0  0  0  0  0  0  0  0  0  0
    8.0180   -1.6980   23.4470 C   0  0  0  0  0  0  0  0  0  0  0  0
    9.2370   -2.3470   22.8220 C   0  0  0  0  0  0  0  0  0  0  0  0
   10.4780   -1.9160   23.0410 C   0  0  0  0  0  0  0  0  0  0  0  0
   10.8220   -0.7620   23.9570 C   0  0  0  0  0  0  0  0  0  0  0  0
   10.1760    0.5750   23.5600 C   0  0  0  0  0  0  0  0  0  0  0  0
    8.6750    0.6580   23.8500 C   0  0  0  0  0  0  0  0  0  0  0  0
    8.5210    0.4580   24.9150 H   0  0  0  0  0  0  0  0  0  0  0  0
    8.3080    1.6660   23.6520 H   0  0  0  0  0  0  0  0  0  0  0  0
   10.3350    0.7600   22.4940 H   0  0  0  0  0  0  0  0  0  0  0  0
   10.6900    1.3930   24.0860 H   0  0  0  0  0  0  0  0  0  0  0  0
   11.9100   -0.6410   23.9890 H   0  0  0  0  0  0  0  0  0  0  0  0
   10.5170   -1.0030   24.9860 H   0  0  0  0  0  0  0  0  0  0  0  0
   11.2960   -2.3860   22.4950 H   0  0  0  0  0  0  0  0  0  0  0  0
    9.0770   -3.1890   22.1450 H   0  0  0  0  0  0  0  0  0  0  0  0
    8.1010   -1.7480   24.5380 H   0  0  0  0  0  0  0  0  0  0  0  0
    7.1120   -2.2480   23.1890 H   0  0  0  0  0  0  0  0  0  0  0  0
  1  2  2  0  0  0  0
  2  3  1  0  0  0  0
  2 22  1  0  0  0  0
  3  4  1  0  0  0  0
  3 20  1  0  0  0  0
  3 21  1  0  0  0  0
  4  5  2  0  0  0  0
  4 13  1  0  0  0  0
  5  6  1  0  0  0  0
  5 19  1  0  0  0  0
  6  7  2  0  0  0  0
  7  8  1  0  0  0  0
  7 18  1  0  0  0  0
  8  9  2  0  0  0  0
  8 13  1  0  0  0  0
  9 10  1  0  0  0  0
  9 17  1  0  0  0  0
 10 11  2  0  0  0  0
 10 16  1  0  0  0  0
 11 12  1  0  0  0  0
 11 15  1  0  0  0  0
 12 13  2  0  0  0  0
 12 14  1  0  0  0  0
 22 23  1  0  0  0  0
 22 28  1  0  0  0  0
 23 24  1  0  0  0  0
 23 37  1  0  0  0  0
 23 38  1  0  0  0  0
 24 25  2  0  0  0  0
 24 36  1  0  0  0  0
 25 26  1  0  0  0  0
 25 35  1  0  0  0  0
 26 27  1  0  0  0  0
 26 33  1  0  0  0  0
 26 34  1  0  0  0  0
 27 28  1  0  0  0  0
 27 31  1  0  0  0  0
 27 32  1  0  0  0  0
 28 29  1  0  0  0  0
 28 30  1  0  0  0  0
M  END
>  <MODEL>
       2

$$$$
best_conformers_89.pdb
 OpenBabel02042510453D

 38 40  0  0  0  0  0  0  0  0999 V2000
    8.7860   -1.3710   20.4590 O   0  0  0  0  0  0  0  0  0  0  0  0
    8.0380   -0.6020   21.0380 C   0  0  0  0  0  0  0  0  0  0  0  0
    6.5110   -0.8380   21.0120 C   0  0  0  0  0  0  0  0  0  0  0  0
    5.8140   -0.1530   19.8500 C   0  0  0  0  0  0  0  0  0  0  0  0
    6.2310   -0.4380   18.5690 C   0  0  0  0  0  0  0  0  0  0  0  0
    5.7510    0.1340   17.4360 N   0  0  0  0  0  0  0  0  0  0  0  0
    4.7880    1.0150   17.5810 C   0  0  0  0  0  0  0  0  0  0  0  0
    4.2250    1.3840   18.8330 C   0  0  0  0  0  0  0  0  0  0  0  0
    3.1750    2.3330   18.9280 C   0  0  0  0  0  0  0  0  0  0  0  0
    2.6350    2.6590   20.1440 C   0  0  0  0  0  0  0  0  0  0  0  0
    3.1250    2.0440   21.3180 C   0  0  0  0  0  0  0  0  0  0  0  0
    4.1480    1.1250   21.2530 C   0  0  0  0  0  0  0  0  0  0  0  0
    4.7350    0.7720   20.0080 C   0  0  0  0  0  0  0  0  0  0  0  0
    4.4970    0.6580   22.1700 H   0  0  0  0  0  0  0  0  0  0  0  0
    2.6940    2.3050   22.2790 H   0  0  0  0  0  0  0  0  0  0  0  0
    1.8320    3.3880   20.2140 H   0  0  0  0  0  0  0  0  0  0  0  0
    2.8090    2.7940   18.0130 H   0  0  0  0  0  0  0  0  0  0  0  0
    4.4010    1.4870   16.6770 H   0  0  0  0  0  0  0  0  0  0  0  0
    7.0160   -1.1760   18.4160 H   0  0  0  0  0  0  0  0  0  0  0  0
    6.0500   -0.6120   21.9780 H   0  0  0  0  0  0  0  0  0  0  0  0
    6.4120   -1.9200   20.8760 H   0  0  0  0  0  0  0  0  0  0  0  0
    8.5270    0.4850   21.7290 N   0  0  0  0  0  0  0  0  0  0  0  0
    7.7370    1.6380   22.1200 C   0  0  0  0  0  0  0  0  0  0  0  0
    7.1190    1.5700   23.4930 C   0  0  0  0  0  0  0  0  0  0  0  0
    7.6640    0.9730   24.5510 C   0  0  0  0  0  0  0  0  0  0  0  0
    8.9840    0.2410   24.5690 C   0  0  0  0  0  0  0  0  0  0  0  0
   10.0550    0.8510   23.6700 C   0  0  0  0  0  0  0  0  0  0  0  0
    9.9100    0.4650   22.1980 C   0  0  0  0  0  0  0  0  0  0  0  0
   10.5250    1.1520   21.6130 H   0  0  0  0  0  0  0  0  0  0  0  0
   10.2990   -0.5390   22.0220 H   0  0  0  0  0  0  0  0  0  0  0  0
   11.0500    0.5390   24.0080 H   0  0  0  0  0  0  0  0  0  0  0  0
   10.0570    1.9390   23.7850 H   0  0  0  0  0  0  0  0  0  0  0  0
    8.8290   -0.7940   24.2470 H   0  0  0  0  0  0  0  0  0  0  0  0
    9.3460    0.1810   25.5990 H   0  0  0  0  0  0  0  0  0  0  0  0
    7.1350    1.0300   25.5000 H   0  0  0  0  0  0  0  0  0  0  0  0
    6.1410    2.0440   23.5960 H   0  0  0  0  0  0  0  0  0  0  0  0
    8.4000    2.5080   22.0780 H   0  0  0  0  0  0  0  0  0  0  0  0
    6.9730    1.8240   21.3640 H   0  0  0  0  0  0  0  0  0  0  0  0
  1  2  2  0  0  0  0
  2  3  1  0  0  0  0
  2 22  1  0  0  0  0
  3  4  1  0  0  0  0
  3 20  1  0  0  0  0
  3 21  1  0  0  0  0
  4  5  2  0  0  0  0
  4 13  1  0  0  0  0
  5  6  1  0  0  0  0
  5 19  1  0  0  0  0
  6  7  2  0  0  0  0
  7  8  1  0  0  0  0
  7 18  1  0  0  0  0
  8  9  2  0  0  0  0
  8 13  1  0  0  0  0
  9 10  1  0  0  0  0
  9 17  1  0  0  0  0
 10 11  2  0  0  0  0
 10 16  1  0  0  0  0
 11 12  1  0  0  0  0
 11 15  1  0  0  0  0
 12 13  2  0  0  0  0
 12 14  1  0  0  0  0
 22 23  1  0  0  0  0
 22 28  1  0  0  0  0
 23 24  1  0  0  0  0
 23 37  1  0  0  0  0
 23 38  1  0  0  0  0
 24 25  2  0  0  0  0
 24 36  1  0  0  0  0
 25 26  1  0  0  0  0
 25 35  1  0  0  0  0
 26 27  1  0  0  0  0
 26 33  1  0  0  0  0
 26 34  1  0  0  0  0
 27 28  1  0  0  0  0
 27 31  1  0  0  0  0
 27 32  1  0  0  0  0
 28 29  1  0  0  0  0
 28 30  1  0  0  0  0
M  END
>  <MODEL>
       3

$$$$
best_conformers_89.pdb
 OpenBabel02042510453D

 38 40  0  0  0  0  0  0  0  0999 V2000
    7.6970    1.1960   21.3930 O   0  0  0  0  0  0  0  0  0  0  0  0
    7.3960    0.1070   21.8420 C   0  0  0  0  0  0  0  0  0  0  0  0
    6.4710   -0.8410   21.0440 C   0  0  0  0  0  0  0  0  0  0  0  0
    5.8140   -0.1730   19.8550 C   0  0  0  0  0  0  0  0  0  0  0  0
    6.2360   -0.4380   18.5780 C   0  0  0  0  0  0  0  0  0  0  0  0
    5.7560    0.1370   17.4400 N   0  0  0  0  0  0  0  0  0  0  0  0
    4.7870    1.0110   17.5830 C   0  0  0  0  0  0  0  0  0  0  0  0
    4.2320    1.3790   18.8370 C   0  0  0  0  0  0  0  0  0  0  0  0
    3.1810    2.3280   18.9410 C   0  0  0  0  0  0  0  0  0  0  0  0
    2.6600    2.6590   20.1640 C   0  0  0  0  0  0  0  0  0  0  0  0
    3.1720    2.0550   21.3340 C   0  0  0  0  0  0  0  0  0  0  0  0
    4.1930    1.1370   21.2610 C   0  0  0  0  0  0  0  0  0  0  0  0
    4.7550    0.7740   20.0080 C   0  0  0  0  0  0  0  0  0  0  0  0
    4.5810    0.6870   22.1710 H   0  0  0  0  0  0  0  0  0  0  0  0
    2.7570    2.3270   22.2990 H   0  0  0  0  0  0  0  0  0  0  0  0
    1.8570    3.3900   20.2440 H   0  0  0  0  0  0  0  0  0  0  0  0
    2.8010    2.7910   18.0320 H   0  0  0  0  0  0  0  0  0  0  0  0
    4.3980    1.4860   16.6800 H   0  0  0  0  0  0  0  0  0  0  0  0
    7.0260   -1.1690   18.4040 H   0  0  0  0  0  0  0  0  0  0  0  0
    5.7130   -1.2680   21.7130 H   0  0  0  0  0  0  0  0  0  0  0  0
    7.0750   -1.6880   20.6880 H   0  0  0  0  0  0  0  0  0  0  0  0
    7.8490   -0.3000   23.0900 N   0  0  0  0  0  0  0  0  0  0  0  0
    8.7030    0.6570   23.8130 C   0  0  0  0  0  0  0  0  0  0  0  0
   10.1390    0.7280   23.3320 C   0  0  0  0  0  0  0  0  0  0  0  0
   10.9510   -0.3260   23.3180 C   0  0  0  0  0  0  0  0  0  0  0  0
   10.5640   -1.6990   23.8180 C   0  0  0  0  0  0  0  0  0  0  0  0
    9.3550   -2.3240   23.1000 C   0  0  0  0  0  0  0  0  0  0  0  0
    8.0080   -1.6990   23.4770 C   0  0  0  0  0  0  0  0  0  0  0  0
    7.1820   -2.2800   23.0600 H   0  0  0  0  0  0  0  0  0  0  0  0
    7.9010   -1.7500   24.5670 H   0  0  0  0  0  0  0  0  0  0  0  0
    9.3230   -3.4010   23.3180 H   0  0  0  0  0  0  0  0  0  0  0  0
    9.4990   -2.2370   22.0190 H   0  0  0  0  0  0  0  0  0  0  0  0
   11.4240   -2.3710   23.7230 H   0  0  0  0  0  0  0  0  0  0  0  0
   10.3380   -1.6480   24.8930 H   0  0  0  0  0  0  0  0  0  0  0  0
   11.9400   -0.2110   22.8760 H   0  0  0  0  0  0  0  0  0  0  0  0
   10.4900    1.6850   22.9460 H   0  0  0  0  0  0  0  0  0  0  0  0
    8.6940    0.3620   24.8690 H   0  0  0  0  0  0  0  0  0  0  0  0
    8.2390    1.6430   23.7590 H   0  0  0  0  0  0  0  0  0  0  0  0
  1  2  2  0  0  0  0
  2  3  1  0  0  0  0
  2 22  1  0  0  0  0
  3  4  1  0  0  0  0
  3 20  1  0  0  0  0
  3 21  1  0  0  0  0
  4  5  2  0  0  0  0
  4 13  1  0  0  0  0
  5  6  1  0  0  0  0
  5 19  1  0  0  0  0
  6  7  2  0  0  0  0
  7  8  1  0  0  0  0
  7 18  1  0  0  0  0
  8  9  2  0  0  0  0
  8 13  1  0  0  0  0
  9 10  1  0  0  0  0
  9 17  1  0  0  0  0
 10 11  2  0  0  0  0
 10 16  1  0  0  0  0
 11 12  1  0  0  0  0
 11 15  1  0  0  0  0
 12 13  2  0  0  0  0
 12 14  1  0  0  0  0
 22 23  1  0  0  0  0
 22 28  1  0  0  0  0
 23 24  1  0  0  0  0
 23 37  1  0  0  0  0
 23 38  1  0  0  0  0
 24 25  2  0  0  0  0
 24 36  1  0  0  0  0
 25 26  1  0  0  0  0
 25 35  1  0  0  0  0
 26 27  1  0  0  0  0
 26 33  1  0  0  0  0
 26 34  1  0  0  0  0
 27 28  1  0  0  0  0
 27 31  1  0  0  0  0
 27 32  1  0  0  0  0
 28 29  1  0  0  0  0
 28 30  1  0  0  0  0
M  END
>  <MODEL>
       4

$$$$
best_conformers_89.pdb
 OpenBabel02042510453D

 38 40  0  0  0  0  0  0  0  0999 V2000
    4.4950   -2.2390   21.2620 O   0  0  0  0  0  0  0  0  0  0  0  0
    5.6890   -2.1510   21.4550 C   0  0  0  0  0  0  0  0  0  0  0  0
    6.4690   -0.8900   21.0210 C   0  0  0  0  0  0  0  0  0  0  0  0
    5.8140   -0.1740   19.8540 C   0  0  0  0  0  0  0  0  0  0  0  0
    6.2310   -0.4420   18.5750 C   0  0  0  0  0  0  0  0  0  0  0  0
    5.7510    0.1330   17.4390 N   0  0  0  0  0  0  0  0  0  0  0  0
    4.7870    1.0120   17.5830 C   0  0  0  0  0  0  0  0  0  0  0  0
    4.2290    1.3770   18.8370 C   0  0  0  0  0  0  0  0  0  0  0  0
    3.1740    2.3230   18.9390 C   0  0  0  0  0  0  0  0  0  0  0  0
    2.6390    2.6400   20.1590 C   0  0  0  0  0  0  0  0  0  0  0  0
    3.1380    2.0230   21.3280 C   0  0  0  0  0  0  0  0  0  0  0  0
    4.1640    1.1090   21.2560 C   0  0  0  0  0  0  0  0  0  0  0  0
    4.7450    0.7650   20.0080 C   0  0  0  0  0  0  0  0  0  0  0  0
    4.5240    0.6280   22.1600 H   0  0  0  0  0  0  0  0  0  0  0  0
    2.7080    2.2780   22.2920 H   0  0  0  0  0  0  0  0  0  0  0  0
    1.8320    3.3650   20.2380 H   0  0  0  0  0  0  0  0  0  0  0  0
    2.8000    2.7900   18.0300 H   0  0  0  0  0  0  0  0  0  0  0  0
    4.4000    1.4860   16.6790 H   0  0  0  0  0  0  0  0  0  0  0  0
    7.0150   -1.1790   18.4040 H   0  0  0  0  0  0  0  0  0  0  0  0
    6.5680   -0.2180   21.8850 H   0  0  0  0  0  0  0  0  0  0  0  0
    7.4880   -1.1870   20.7400 H   0  0  0  0  0  0  0  0  0  0  0  0
    6.3790   -3.2100   22.0090 N   0  0  0  0  0  0  0  0  0  0  0  0
    5.7100   -4.5080   22.0250 C   0  0  0  0  0  0  0  0  0  0  0  0
    4.8380   -4.8080   23.2240 C   0  0  0  0  0  0  0  0  0  0  0  0
    5.0900   -4.4090   24.4670 C   0  0  0  0  0  0  0  0  0  0  0  0
    6.2610   -3.5620   24.9020 C   0  0  0  0  0  0  0  0  0  0  0  0
    7.5550   -3.8010   24.1200 C   0  0  0  0  0  0  0  0  0  0  0  0
    7.6110   -3.0870   22.7660 C   0  0  0  0  0  0  0  0  0  0  0  0
    8.4510   -3.4760   22.1760 H   0  0  0  0  0  0  0  0  0  0  0  0
    7.7950   -2.0250   22.9430 H   0  0  0  0  0  0  0  0  0  0  0  0
    8.4070   -3.4550   24.7130 H   0  0  0  0  0  0  0  0  0  0  0  0
    7.7160   -4.8750   23.9970 H   0  0  0  0  0  0  0  0  0  0  0  0
    6.4350   -3.7250   25.9720 H   0  0  0  0  0  0  0  0  0  0  0  0
    5.9910   -2.5040   24.8080 H   0  0  0  0  0  0  0  0  0  0  0  0
    4.4050   -4.7250   25.2520 H   0  0  0  0  0  0  0  0  0  0  0  0
    3.9330   -5.3880   23.0320 H   0  0  0  0  0  0  0  0  0  0  0  0
    6.4930   -5.2700   21.9630 H   0  0  0  0  0  0  0  0  0  0  0  0
    5.1220   -4.6110   21.1120 H   0  0  0  0  0  0  0  0  0  0  0  0
  1  2  2  0  0  0  0
  2  3  1  0  0  0  0
  2 22  1  0  0  0  0
  3  4  1  0  0  0  0
  3 20  1  0  0  0  0
  3 21  1  0  0  0  0
  4  5  2  0  0  0  0
  4 13  1  0  0  0  0
  5  6  1  0  0  0  0
  5 19  1  0  0  0  0
  6  7  2  0  0  0  0
  7  8  1  0  0  0  0
  7 18  1  0  0  0  0
  8  9  2  0  0  0  0
  8 13  1  0  0  0  0
  9 10  1  0  0  0  0
  9 17  1  0  0  0  0
 10 11  2  0  0  0  0
 10 16  1  0  0  0  0
 11 12  1  0  0  0  0
 11 15  1  0  0  0  0
 12 13  2  0  0  0  0
 12 14  1  0  0  0  0
 22 23  1  0  0  0  0
 22 28  1  0  0  0  0
 23 24  1  0  0  0  0
 23 37  1  0  0  0  0
 23 38  1  0  0  0  0
 24 25  2  0  0  0  0
 24 36  1  0  0  0  0
 25 26  1  0  0  0  0
 25 35  1  0  0  0  0
 26 27  1  0  0  0  0
 26 33  1  0  0  0  0
 26 34  1  0  0  0  0
 27 28  1  0  0  0  0
 27 31  1  0  0  0  0
 27 32  1  0  0  0  0
 28 29  1  0  0  0  0
 28 30  1  0  0  0  0
M  END
>  <MODEL>
       5

$$$$
best_conformers_89.pdb
 OpenBabel02042510453D

 38 40  0  0  0  0  0  0  0  0999 V2000
    4.5900   -2.4110   21.0070 O   0  0  0  0  0  0  0  0  0  0  0  0
    5.6020   -2.0520   21.5830 C   0  0  0  0  0  0  0  0  0  0  0  0
    6.4460   -0.8760   21.0400 C   0  0  0  0  0  0  0  0  0  0  0  0
    5.8090   -0.1820   19.8560 C   0  0  0  0  0  0  0  0  0  0  0  0
    6.2310   -0.4480   18.5800 C   0  0  0  0  0  0  0  0  0  0  0  0
    5.7550    0.1310   17.4420 N   0  0  0  0  0  0  0  0  0  0  0  0
    4.7910    1.0090   17.5850 C   0  0  0  0  0  0  0  0  0  0  0  0
    4.2290    1.3730   18.8390 C   0  0  0  0  0  0  0  0  0  0  0  0
    3.1750    2.3200   18.9420 C   0  0  0  0  0  0  0  0  0  0  0  0
    2.6420    2.6370   20.1610 C   0  0  0  0  0  0  0  0  0  0  0  0
    3.1430    2.0200   21.3300 C   0  0  0  0  0  0  0  0  0  0  0  0
    4.1660    1.1060   21.2590 C   0  0  0  0  0  0  0  0  0  0  0  0
    4.7430    0.7590   20.0080 C   0  0  0  0  0  0  0  0  0  0  0  0
    4.5390    0.6360   22.1640 H   0  0  0  0  0  0  0  0  0  0  0  0
    2.7140    2.2800   22.2950 H   0  0  0  0  0  0  0  0  0  0  0  0
    1.8350    3.3640   20.2400 H   0  0  0  0  0  0  0  0  0  0  0  0
    2.8030    2.7880   18.0320 H   0  0  0  0  0  0  0  0  0  0  0  0
    4.4020    1.4830   16.6810 H   0  0  0  0  0  0  0  0  0  0  0  0
    7.0190   -1.1800   18.4030 H   0  0  0  0  0  0  0  0  0  0  0  0
    7.4240   -1.2770   20.7340 H   0  0  0  0  0  0  0  0  0  0  0  0
    6.6560   -0.1640   21.8500 H   0  0  0  0  0  0  0  0  0  0  0  0
    6.0080   -2.7050   22.7260 N   0  0  0  0  0  0  0  0  0  0  0  0
    5.2000   -3.8770   23.1030 C   0  0  0  0  0  0  0  0  0  0  0  0
    5.4550   -5.1340   22.2870 C   0  0  0  0  0  0  0  0  0  0  0  0
    6.6530   -5.7110   22.2450 C   0  0  0  0  0  0  0  0  0  0  0  0
    7.8270   -5.2020   23.0600 C   0  0  0  0  0  0  0  0  0  0  0  0
    8.2850   -3.7800   22.6440 C   0  0  0  0  0  0  0  0  0  0  0  0
    7.3750   -2.6850   23.2290 C   0  0  0  0  0  0  0  0  0  0  0  0
    7.3120   -2.8470   24.3110 H   0  0  0  0  0  0  0  0  0  0  0  0
    7.7860   -1.6810   23.0820 H   0  0  0  0  0  0  0  0  0  0  0  0
    8.3090   -3.6620   21.5540 H   0  0  0  0  0  0  0  0  0  0  0  0
    9.3100   -3.5940   22.9860 H   0  0  0  0  0  0  0  0  0  0  0  0
    8.6350   -5.9290   23.0700 H   0  0  0  0  0  0  0  0  0  0  0  0
    7.5470   -5.1540   24.1240 H   0  0  0  0  0  0  0  0  0  0  0  0
    6.7960   -6.5510   21.5630 H   0  0  0  0  0  0  0  0  0  0  0  0
    4.6110   -5.5550   21.7300 H   0  0  0  0  0  0  0  0  0  0  0  0
    4.1510   -3.6040   23.0380 H   0  0  0  0  0  0  0  0  0  0  0  0
    5.4200   -4.0770   24.1580 H   0  0  0  0  0  0  0  0  0  0  0  0
  1  2  2  0  0  0  0
  2  3  1  0  0  0  0
  2 22  1  0  0  0  0
  3  4  1  0  0  0  0
  3 20  1  0  0  0  0
  3 21  1  0  0  0  0
  4  5  2  0  0  0  0
  4 13  1  0  0  0  0
  5  6  1  0  0  0  0
  5 19  1  0  0  0  0
  6  7  2  0  0  0  0
  7  8  1  0  0  0  0
  7 18  1  0  0  0  0
  8  9  2  0  0  0  0
  8 13  1  0  0  0  0
  9 10  1  0  0  0  0
  9 17  1  0  0  0  0
 10 11  2  0  0  0  0
 10 16  1  0  0  0  0
 11 12  1  0  0  0  0
 11 15  1  0  0  0  0
 12 13  2  0  0  0  0
 12 14  1  0  0  0  0
 22 23  1  0  0  0  0
 22 28  1  0  0  0  0
 23 24  1  0  0  0  0
 23 37  1  0  0  0  0
 23 38  1  0  0  0  0
 24 25  2  0  0  0  0
 24 36  1  0  0  0  0
 25 26  1  0  0  0  0
 25 35  1  0  0  0  0
 26 27  1  0  0  0  0
 26 33  1  0  0  0  0
 26 34  1  0  0  0  0
 27 28  1  0  0  0  0
 27 31  1  0  0  0  0
 27 32  1  0  0  0  0
 28 29  1  0  0  0  0
 28 30  1  0  0  0  0
M  END
>  <MODEL>
       6

$$$$
best_conformers_89.pdb
 OpenBabel02042510453D

 38 40  0  0  0  0  0  0  0  0999 V2000
    4.7520   -2.5840   21.3120 O   0  0  0  0  0  0  0  0  0  0  0  0
    5.5780   -1.8960   21.8920 C   0  0  0  0  0  0  0  0  0  0  0  0
    6.4310   -0.8780   21.1040 C   0  0  0  0  0  0  0  0  0  0  0  0
    5.7750   -0.2500   19.8830 C   0  0  0  0  0  0  0  0  0  0  0  0
    6.2470   -0.5010   18.6200 C   0  0  0  0  0  0  0  0  0  0  0  0
    5.8030    0.0800   17.4700 N   0  0  0  0  0  0  0  0  0  0  0  0
    4.8310    0.9530   17.5910 C   0  0  0  0  0  0  0  0  0  0  0  0
    4.2340    1.3170   18.8270 C   0  0  0  0  0  0  0  0  0  0  0  0
    3.1970    2.2830   18.9070 C   0  0  0  0  0  0  0  0  0  0  0  0
    2.6570    2.6230   20.1150 C   0  0  0  0  0  0  0  0  0  0  0  0
    3.1330    2.0200   21.3000 C   0  0  0  0  0  0  0  0  0  0  0  0
    4.1370    1.0870   21.2510 C   0  0  0  0  0  0  0  0  0  0  0  0
    4.7160    0.7030   20.0110 C   0  0  0  0  0  0  0  0  0  0  0  0
    4.5050    0.6470   22.1750 H   0  0  0  0  0  0  0  0  0  0  0  0
    2.7060    2.3080   22.2550 H   0  0  0  0  0  0  0  0  0  0  0  0
    1.8680    3.3660   20.1770 H   0  0  0  0  0  0  0  0  0  0  0  0
    2.8520    2.7550   17.9910 H   0  0  0  0  0  0  0  0  0  0  0  0
    4.4700    1.4300   16.6790 H   0  0  0  0  0  0  0  0  0  0  0  0
    7.0660   -1.2070   18.4720 H   0  0  0  0  0  0  0  0  0  0  0  0
    7.3170   -1.4300   20.7590 H   0  0  0  0  0  0  0  0  0  0  0  0
    6.7890   -0.0810   21.7670 H   0  0  0  0  0  0  0  0  0  0  0  0
    5.8110   -2.0320   23.2440 N   0  0  0  0  0  0  0  0  0  0  0  0
    6.8780   -1.3730   23.9880 C   0  0  0  0  0  0  0  0  0  0  0  0
    6.5360    0.0140   24.5070 C   0  0  0  0  0  0  0  0  0  0  0  0
    5.5060    0.2210   25.3270 C   0  0  0  0  0  0  0  0  0  0  0  0
    4.6220   -0.8810   25.8780 C   0  0  0  0  0  0  0  0  0  0  0  0
    3.9250   -1.7840   24.8420 C   0  0  0  0  0  0  0  0  0  0  0  0
    4.8310   -2.7410   24.0570 C   0  0  0  0  0  0  0  0  0  0  0  0
    5.3830   -3.4370   24.7080 H   0  0  0  0  0  0  0  0  0  0  0  0
    4.2420   -3.3530   23.3770 H   0  0  0  0  0  0  0  0  0  0  0  0
    3.4040   -1.1370   24.1230 H   0  0  0  0  0  0  0  0  0  0  0  0
    3.1430   -2.3690   25.3460 H   0  0  0  0  0  0  0  0  0  0  0  0
    3.8560   -0.4000   26.4950 H   0  0  0  0  0  0  0  0  0  0  0  0
    5.2030   -1.5080   26.5740 H   0  0  0  0  0  0  0  0  0  0  0  0
    5.2960    1.2310   25.6850 H   0  0  0  0  0  0  0  0  0  0  0  0
    7.1820    0.8600   24.2610 H   0  0  0  0  0  0  0  0  0  0  0  0
    7.0580   -2.0080   24.8670 H   0  0  0  0  0  0  0  0  0  0  0  0
    7.8060   -1.3670   23.4070 H   0  0  0  0  0  0  0  0  0  0  0  0
  1  2  2  0  0  0  0
  2  3  1  0  0  0  0
  2 22  1  0  0  0  0
  3  4  1  0  0  0  0
  3 20  1  0  0  0  0
  3 21  1  0  0  0  0
  4  5  2  0  0  0  0
  4 13  1  0  0  0  0
  5  6  1  0  0  0  0
  5 19  1  0  0  0  0
  6  7  2  0  0  0  0
  7  8  1  0  0  0  0
  7 18  1  0  0  0  0
  8  9  2  0  0  0  0
  8 13  1  0  0  0  0
  9 10  1  0  0  0  0
  9 17  1  0  0  0  0
 10 11  2  0  0  0  0
 10 16  1  0  0  0  0
 11 12  1  0  0  0  0
 11 15  1  0  0  0  0
 12 13  2  0  0  0  0
 12 14  1  0  0  0  0
 22 23  1  0  0  0  0
 22 28  1  0  0  0  0
 23 24  1  0  0  0  0
 23 37  1  0  0  0  0
 23 38  1  0  0  0  0
 24 25  2  0  0  0  0
 24 36  1  0  0  0  0
 25 26  1  0  0  0  0
 25 35  1  0  0  0  0
 26 27  1  0  0  0  0
 26 33  1  0  0  0  0
 26 34  1  0  0  0  0
 27 28  1  0  0  0  0
 27 31  1  0  0  0  0
 27 32  1  0  0  0  0
 28 29  1  0  0  0  0
 28 30  1  0  0  0  0
M  END
>  <MODEL>
       7

$$$$
best_conformers_89.pdb
 OpenBabel02042510453D

 38 40  0  0  0  0  0  0  0  0999 V2000
    8.0620   -2.4900   21.3880 O   0  0  0  0  0  0  0  0  0  0  0  0
    7.8570   -1.3150   21.1230 C   0  0  0  0  0  0  0  0  0  0  0  0
    6.4310   -0.8040   21.0960 C   0  0  0  0  0  0  0  0  0  0  0  0
    5.8660   -0.1310   19.8590 C   0  0  0  0  0  0  0  0  0  0  0  0
    6.2960   -0.4190   18.5890 C   0  0  0  0  0  0  0  0  0  0  0  0
    5.7970    0.1330   17.4480 N   0  0  0  0  0  0  0  0  0  0  0  0
    4.8210    1.0030   17.5790 C   0  0  0  0  0  0  0  0  0  0  0  0
    4.2510    1.3860   18.8250 C   0  0  0  0  0  0  0  0  0  0  0  0
    3.1840    2.3160   18.9230 C   0  0  0  0  0  0  0  0  0  0  0  0
    2.6320    2.6250   20.1360 C   0  0  0  0  0  0  0  0  0  0  0  0
    3.1160    2.0000   21.3020 C   0  0  0  0  0  0  0  0  0  0  0  0
    4.1510    1.0990   21.2370 C   0  0  0  0  0  0  0  0  0  0  0  0
    4.7700    0.7880   19.9990 C   0  0  0  0  0  0  0  0  0  0  0  0
    4.4830    0.6110   22.1510 H   0  0  0  0  0  0  0  0  0  0  0  0
    2.6780    2.2480   22.2630 H   0  0  0  0  0  0  0  0  0  0  0  0
    1.8300    3.3550   20.2130 H   0  0  0  0  0  0  0  0  0  0  0  0
    2.8180    2.7920   18.0200 H   0  0  0  0  0  0  0  0  0  0  0  0
    4.4250    1.4550   16.6700 H   0  0  0  0  0  0  0  0  0  0  0  0
    7.0700   -1.1690   18.4300 H   0  0  0  0  0  0  0  0  0  0  0  0
    6.3950   -0.0960   21.9270 H   0  0  0  0  0  0  0  0  0  0  0  0
    5.8360   -1.6810   21.3770 H   0  0  0  0  0  0  0  0  0  0  0  0
    8.8760   -0.4050   20.9100 N   0  0  0  0  0  0  0  0  0  0  0  0
    8.6510    1.0230   21.1200 C   0  0  0  0  0  0  0  0  0  0  0  0
    8.6920    1.4900   22.5550 C   0  0  0  0  0  0  0  0  0  0  0  0
    9.3300    0.9130   23.5720 C   0  0  0  0  0  0  0  0  0  0  0  0
   10.2490   -0.2760   23.5040 C   0  0  0  0  0  0  0  0  0  0  0  0
   11.0510   -0.3700   22.2060 C   0  0  0  0  0  0  0  0  0  0  0  0
   10.2370   -0.9300   21.0420 C   0  0  0  0  0  0  0  0  0  0  0  0
   10.7820   -0.7680   20.1190 H   0  0  0  0  0  0  0  0  0  0  0  0
   10.1150   -2.0070   21.1750 H   0  0  0  0  0  0  0  0  0  0  0  0
   11.9030   -1.0480   22.3560 H   0  0  0  0  0  0  0  0  0  0  0  0
   11.4800    0.6100   21.9500 H   0  0  0  0  0  0  0  0  0  0  0  0
   10.9260   -0.2200   24.3590 H   0  0  0  0  0  0  0  0  0  0  0  0
    9.6760   -1.2020   23.6460 H   0  0  0  0  0  0  0  0  0  0  0  0
    9.1980    1.3810   24.5430 H   0  0  0  0  0  0  0  0  0  0  0  0
    8.1160    2.3930   22.7540 H   0  0  0  0  0  0  0  0  0  0  0  0
    7.6730    1.2740   20.6950 H   0  0  0  0  0  0  0  0  0  0  0  0
    9.3560    1.5940   20.5120 H   0  0  0  0  0  0  0  0  0  0  0  0
  1  2  2  0  0  0  0
  2  3  1  0  0  0  0
  2 22  1  0  0  0  0
  3  4  1  0  0  0  0
  3 20  1  0  0  0  0
  3 21  1  0  0  0  0
  4  5  2  0  0  0  0
  4 13  1  0  0  0  0
  5  6  1  0  0  0  0
  5 19  1  0  0  0  0
  6  7  2  0  0  0  0
  7  8  1  0  0  0  0
  7 18  1  0  0  0  0
  8  9  2  0  0  0  0
  8 13  1  0  0  0  0
  9 10  1  0  0  0  0
  9 17  1  0  0  0  0
 10 11  2  0  0  0  0
 10 16  1  0  0  0  0
 11 12  1  0  0  0  0
 11 15  1  0  0  0  0
 12 13  2  0  0  0  0
 12 14  1  0  0  0  0
 22 23  1  0  0  0  0
 22 28  1  0  0  0  0
 23 24  1  0  0  0  0
 23 37  1  0  0  0  0
 23 38  1  0  0  0  0
 24 25  2  0  0  0  0
 24 36  1  0  0  0  0
 25 26  1  0  0  0  0
 25 35  1  0  0  0  0
 26 27  1  0  0  0  0
 26 33  1  0  0  0  0
 26 34  1  0  0  0  0
 27 28  1  0  0  0  0
 27 31  1  0  0  0  0
 27 32  1  0  0  0  0
 28 29  1  0  0  0  0
 28 30  1  0  0  0  0
M  END
>  <MODEL>
       8

$$$$
best_conformers_89.pdb
 OpenBabel02042510453D

 38 40  0  0  0  0  0  0  0  0999 V2000
    7.5610    1.2540   21.5020 O   0  0  0  0  0  0  0  0  0  0  0  0
    7.5900    0.0420   21.6460 C   0  0  0  0  0  0  0  0  0  0  0  0
    6.5020   -0.8440   21.0320 C   0  0  0  0  0  0  0  0  0  0  0  0
    5.8240   -0.1820   19.8600 C   0  0  0  0  0  0  0  0  0  0  0  0
    6.2600   -0.4430   18.5880 C   0  0  0  0  0  0  0  0  0  0  0  0
    5.7860    0.1260   17.4490 N   0  0  0  0  0  0  0  0  0  0  0  0
    4.8120    0.9970   17.5900 C   0  0  0  0  0  0  0  0  0  0  0  0
    4.2480    1.3630   18.8420 C   0  0  0  0  0  0  0  0  0  0  0  0
    3.1970    2.3100   18.9400 C   0  0  0  0  0  0  0  0  0  0  0  0
    2.6770    2.6460   20.1590 C   0  0  0  0  0  0  0  0  0  0  0  0
    3.1870    2.0520   21.3360 C   0  0  0  0  0  0  0  0  0  0  0  0
    4.2080    1.1370   21.2680 C   0  0  0  0  0  0  0  0  0  0  0  0
    4.7650    0.7630   20.0160 C   0  0  0  0  0  0  0  0  0  0  0  0
    4.6120    0.7140   22.1820 H   0  0  0  0  0  0  0  0  0  0  0  0
    2.7640    2.3280   22.2980 H   0  0  0  0  0  0  0  0  0  0  0  0
    1.8760    3.3770   20.2330 H   0  0  0  0  0  0  0  0  0  0  0  0
    2.8250    2.7710   18.0270 H   0  0  0  0  0  0  0  0  0  0  0  0
    4.4160    1.4580   16.6830 H   0  0  0  0  0  0  0  0  0  0  0  0
    7.0570   -1.1710   18.4280 H   0  0  0  0  0  0  0  0  0  0  0  0
    5.7840   -1.1230   21.8150 H   0  0  0  0  0  0  0  0  0  0  0  0
    6.9810   -1.7690   20.6910 H   0  0  0  0  0  0  0  0  0  0  0  0
    8.6280   -0.5940   22.2900 N   0  0  0  0  0  0  0  0  0  0  0  0
    9.8030    0.2120   22.5970 C   0  0  0  0  0  0  0  0  0  0  0  0
    9.7320    0.9320   23.9260 C   0  0  0  0  0  0  0  0  0  0  0  0
    9.0300    0.5200   24.9860 C   0  0  0  0  0  0  0  0  0  0  0  0
    8.4920   -0.8780   25.2120 C   0  0  0  0  0  0  0  0  0  0  0  0
    9.0880   -1.9650   24.3040 C   0  0  0  0  0  0  0  0  0  0  0  0
    8.5760   -1.9330   22.8590 C   0  0  0  0  0  0  0  0  0  0  0  0
    9.1630   -2.6390   22.2530 H   0  0  0  0  0  0  0  0  0  0  0  0
    7.5390   -2.2830   22.8390 H   0  0  0  0  0  0  0  0  0  0  0  0
    8.8320   -2.9470   24.7140 H   0  0  0  0  0  0  0  0  0  0  0  0
   10.1840   -1.9190   24.3230 H   0  0  0  0  0  0  0  0  0  0  0  0
    8.6590   -1.1550   26.2640 H   0  0  0  0  0  0  0  0  0  0  0  0
    7.4010   -0.8540   25.0780 H   0  0  0  0  0  0  0  0  0  0  0  0
    8.8190    1.2600   25.7620 H   0  0  0  0  0  0  0  0  0  0  0  0
   10.2770    1.8760   23.9770 H   0  0  0  0  0  0  0  0  0  0  0  0
    9.8900    0.9680   21.8140 H   0  0  0  0  0  0  0  0  0  0  0  0
   10.6940   -0.4340   22.5360 H   0  0  0  0  0  0  0  0  0  0  0  0
  1  2  2  0  0  0  0
  2  3  1  0  0  0  0
  2 22  1  0  0  0  0
  3  4  1  0  0  0  0
  3 20  1  0  0  0  0
  3 21  1  0  0  0  0
  4  5  2  0  0  0  0
  4 13  1  0  0  0  0
  5  6  1  0  0  0  0
  5 19  1  0  0  0  0
  6  7  2  0  0  0  0
  7  8  1  0  0  0  0
  7 18  1  0  0  0  0
  8  9  2  0  0  0  0
  8 13  1  0  0  0  0
  9 10  1  0  0  0  0
  9 17  1  0  0  0  0
 10 11  2  0  0  0  0
 10 16  1  0  0  0  0
 11 12  1  0  0  0  0
 11 15  1  0  0  0  0
 12 13  2  0  0  0  0
 12 14  1  0  0  0  0
 22 23  1  0  0  0  0
 22 28  1  0  0  0  0
 23 24  1  0  0  0  0
 23 37  1  0  0  0  0
 23 38  1  0  0  0  0
 24 25  2  0  0  0  0
 24 36  1  0  0  0  0
 25 26  1  0  0  0  0
 25 35  1  0  0  0  0
 26 27  1  0  0  0  0
 26 33  1  0  0  0  0
 26 34  1  0  0  0  0
 27 28  1  0  0  0  0
 27 31  1  0  0  0  0
 27 32  1  0  0  0  0
 28 29  1  0  0  0  0
 28 30  1  0  0  0  0
M  END
>  <MODEL>
       9

$$$$
best_conformers_89.pdb
 OpenBabel02042510453D

 38 40  0  0  0  0  0  0  0  0999 V2000
    8.6040   -1.7850   20.4760 O   0  0  0  0  0  0  0  0  0  0  0  0
    7.9490   -0.8530   20.9090 C   0  0  0  0  0  0  0  0  0  0  0  0
    6.4280   -0.9110   20.9880 C   0  0  0  0  0  0  0  0  0  0  0  0
    5.7970   -0.1940   19.8160 C   0  0  0  0  0  0  0  0  0  0  0  0
    6.2760   -0.4170   18.5480 C   0  0  0  0  0  0  0  0  0  0  0  0
    5.8040    0.1580   17.4120 N   0  0  0  0  0  0  0  0  0  0  0  0
    4.8110    1.0060   17.5520 C   0  0  0  0  0  0  0  0  0  0  0  0
    4.2270    1.3570   18.8040 C   0  0  0  0  0  0  0  0  0  0  0  0
    3.1830    2.3160   18.9030 C   0  0  0  0  0  0  0  0  0  0  0  0
    2.6430    2.6350   20.1200 C   0  0  0  0  0  0  0  0  0  0  0  0
    3.1260    2.0170   21.2930 C   0  0  0  0  0  0  0  0  0  0  0  0
    4.1420    1.0940   21.2230 C   0  0  0  0  0  0  0  0  0  0  0  0
    4.7220    0.7320   19.9760 C   0  0  0  0  0  0  0  0  0  0  0  0
    4.5020    0.6530   22.1500 H   0  0  0  0  0  0  0  0  0  0  0  0
    2.7020    2.2850   22.2560 H   0  0  0  0  0  0  0  0  0  0  0  0
    1.8470    3.3730   20.1950 H   0  0  0  0  0  0  0  0  0  0  0  0
    2.8260    2.8000   17.9980 H   0  0  0  0  0  0  0  0  0  0  0  0
    4.4170    1.4670   16.6470 H   0  0  0  0  0  0  0  0  0  0  0  0
    7.1040   -1.1090   18.4080 H   0  0  0  0  0  0  0  0  0  0  0  0
    6.1540   -1.9720   20.9910 H   0  0  0  0  0  0  0  0  0  0  0  0
    6.1090   -0.4950   21.9430 H   0  0  0  0  0  0  0  0  0  0  0  0
    8.5450    0.3200   21.3080 N   0  0  0  0  0  0  0  0  0  0  0  0
    9.9910    0.2870   21.5520 C   0  0  0  0  0  0  0  0  0  0  0  0
   10.4300   -0.2750   22.8850 C   0  0  0  0  0  0  0  0  0  0  0  0
   10.1210    0.3310   24.0330 C   0  0  0  0  0  0  0  0  0  0  0  0
    9.2110    1.5360   24.0950 C   0  0  0  0  0  0  0  0  0  0  0  0
    7.8410    1.4770   23.3880 C   0  0  0  0  0  0  0  0  0  0  0  0
    7.8590    1.4740   21.8620 C   0  0  0  0  0  0  0  0  0  0  0  0
    8.3440    2.3720   21.4670 H   0  0  0  0  0  0  0  0  0  0  0  0
    6.8400    1.5180   21.4760 H   0  0  0  0  0  0  0  0  0  0  0  0
    7.3030    0.5790   23.7060 H   0  0  0  0  0  0  0  0  0  0  0  0
    7.2330    2.3240   23.7420 H   0  0  0  0  0  0  0  0  0  0  0  0
    9.0170    1.7930   25.1380 H   0  0  0  0  0  0  0  0  0  0  0  0
    9.7950    2.3700   23.6750 H   0  0  0  0  0  0  0  0  0  0  0  0
   10.6710    0.0580   24.9360 H   0  0  0  0  0  0  0  0  0  0  0  0
   11.0870   -1.1430   22.8870 H   0  0  0  0  0  0  0  0  0  0  0  0
   10.4600   -0.2560   20.7350 H   0  0  0  0  0  0  0  0  0  0  0  0
   10.3130    1.3340   21.5270 H   0  0  0  0  0  0  0  0  0  0  0  0
  1  2  2  0  0  0  0
  2  3  1  0  0  0  0
  2 22  1  0  0  0  0
  3  4  1  0  0  0  0
  3 20  1  0  0  0  0
  3 21  1  0  0  0  0
  4  5  2  0  0  0  0
  4 13  1  0  0  0  0
  5  6  1  0  0  0  0
  5 19  1  0  0  0  0
  6  7  2  0  0  0  0
  7  8  1  0  0  0  0
  7 18  1  0  0  0  0
  8  9  2  0  0  0  0
  8 13  1  0  0  0  0
  9 10  1  0  0  0  0
  9 17  1  0  0  0  0
 10 11  2  0  0  0  0
 10 16  1  0  0  0  0
 11 12  1  0  0  0  0
 11 15  1  0  0  0  0
 12 13  2  0  0  0  0
 12 14  1  0  0  0  0
 22 23  1  0  0  0  0
 22 28  1  0  0  0  0
 23 24  1  0  0  0  0
 23 37  1  0  0  0  0
 23 38  1  0  0  0  0
 24 25  2  0  0  0  0
 24 36  1  0  0  0  0
 25 26  1  0  0  0  0
 25 35  1  0  0  0  0
 26 27  1  0  0  0  0
 26 33  1  0  0  0  0
 26 34  1  0  0  0  0
 27 28  1  0  0  0  0
 27 31  1  0  0  0  0
 27 32  1  0  0  0  0
 28 29  1  0  0  0  0
 28 30  1  0  0  0  0
M  END
>  <MODEL>
      10

$$$$
best_conformers_89.pdb
 OpenBabel02042510453D

 38 40  0  0  0  0  0  0  0  0999 V2000
    8.1460    0.9120   21.1280 O   0  0  0  0  0  0  0  0  0  0  0  0
    7.4410    0.1660   21.7820 C   0  0  0  0  0  0  0  0  0  0  0  0
    6.4770   -0.8080   21.0570 C   0  0  0  0  0  0  0  0  0  0  0  0
    5.8110   -0.1720   19.8510 C   0  0  0  0  0  0  0  0  0  0  0  0
    6.2400   -0.4380   18.5750 C   0  0  0  0  0  0  0  0  0  0  0  0
    5.7570    0.1380   17.4370 N   0  0  0  0  0  0  0  0  0  0  0  0
    4.7870    1.0100   17.5820 C   0  0  0  0  0  0  0  0  0  0  0  0
    4.2280    1.3790   18.8360 C   0  0  0  0  0  0  0  0  0  0  0  0
    3.1810    2.3310   18.9420 C   0  0  0  0  0  0  0  0  0  0  0  0
    2.6600    2.6610   20.1640 C   0  0  0  0  0  0  0  0  0  0  0  0
    3.1720    2.0510   21.3340 C   0  0  0  0  0  0  0  0  0  0  0  0
    4.1890    1.1310   21.2620 C   0  0  0  0  0  0  0  0  0  0  0  0
    4.7490    0.7710   20.0070 C   0  0  0  0  0  0  0  0  0  0  0  0
    4.5630    0.6760   22.1780 H   0  0  0  0  0  0  0  0  0  0  0  0
    2.7570    2.3220   22.3010 H   0  0  0  0  0  0  0  0  0  0  0  0
    1.8600    3.3940   20.2470 H   0  0  0  0  0  0  0  0  0  0  0  0
    2.8030    2.7950   18.0330 H   0  0  0  0  0  0  0  0  0  0  0  0
    4.3980    1.4860   16.6780 H   0  0  0  0  0  0  0  0  0  0  0  0
    7.0300   -1.1700   18.4030 H   0  0  0  0  0  0  0  0  0  0  0  0
    7.0910   -1.6450   20.7000 H   0  0  0  0  0  0  0  0  0  0  0  0
    5.7310   -1.2350   21.7390 H   0  0  0  0  0  0  0  0  0  0  0  0
    7.4710    0.1680   23.1630 N   0  0  0  0  0  0  0  0  0  0  0  0
    7.0700   -0.9510   23.9990 C   0  0  0  0  0  0  0  0  0  0  0  0
    5.6780   -0.8570   24.5720 C   0  0  0  0  0  0  0  0  0  0  0  0
    5.1040    0.2660   24.9960 C   0  0  0  0  0  0  0  0  0  0  0  0
    5.7110    1.6500   24.9620 C   0  0  0  0  0  0  0  0  0  0  0  0
    7.2320    1.6920   25.1230 C   0  0  0  0  0  0  0  0  0  0  0  0
    8.0040    1.3450   23.8480 C   0  0  0  0  0  0  0  0  0  0  0  0
    7.9380    2.1820   23.1500 H   0  0  0  0  0  0  0  0  0  0  0  0
    9.0710    1.2120   24.0780 H   0  0  0  0  0  0  0  0  0  0  0  0
    7.5310    1.0400   25.9490 H   0  0  0  0  0  0  0  0  0  0  0  0
    7.5350    2.6960   25.4440 H   0  0  0  0  0  0  0  0  0  0  0  0
    5.2360    2.2610   25.7390 H   0  0  0  0  0  0  0  0  0  0  0  0
    5.4510    2.1310   24.0100 H   0  0  0  0  0  0  0  0  0  0  0  0
    4.1090    0.1880   25.4290 H   0  0  0  0  0  0  0  0  0  0  0  0
    5.1070   -1.7850   24.6190 H   0  0  0  0  0  0  0  0  0  0  0  0
    7.7910   -1.0180   24.8210 H   0  0  0  0  0  0  0  0  0  0  0  0
    7.1940   -1.8750   23.4340 H   0  0  0  0  0  0  0  0  0  0  0  0
  1  2  2  0  0  0  0
  2  3  1  0  0  0  0
  2 22  1  0  0  0  0
  3  4  1  0  0  0  0
  3 20  1  0  0  0  0
  3 21  1  0  0  0  0
  4  5  2  0  0  0  0
  4 13  1  0  0  0  0
  5  6  1  0  0  0  0
  5 19  1  0  0  0  0
  6  7  2  0  0  0  0
  7  8  1  0  0  0  0
  7 18  1  0  0  0  0
  8  9  2  0  0  0  0
  8 13  1  0  0  0  0
  9 10  1  0  0  0  0
  9 17  1  0  0  0  0
 10 11  2  0  0  0  0
 10 16  1  0  0  0  0
 11 12  1  0  0  0  0
 11 15  1  0  0  0  0
 12 13  2  0  0  0  0
 12 14  1  0  0  0  0
 22 23  1  0  0  0  0
 22 28  1  0  0  0  0
 23 24  1  0  0  0  0
 23 37  1  0  0  0  0
 23 38  1  0  0  0  0
 24 25  2  0  0  0  0
 24 36  1  0  0  0  0
 25 26  1  0  0  0  0
 25 35  1  0  0  0  0
 26 27  1  0  0  0  0
 26 33  1  0  0  0  0
 26 34  1  0  0  0  0
 27 28  1  0  0  0  0
 27 31  1  0  0  0  0
 27 32  1  0  0  0  0
 28 29  1  0  0  0  0
 28 30  1  0  0  0  0
M  END
>  <MODEL>
      11

$$$$
best_conformers_89.pdb
 OpenBabel02042510453D

 38 40  0  0  0  0  0  0  0  0999 V2000
    8.4590   -1.6390   21.0010 O   0  0  0  0  0  0  0  0  0  0  0  0
    7.6870   -0.7450   21.3220 C   0  0  0  0  0  0  0  0  0  0  0  0
    6.1870   -0.9240   21.1470 C   0  0  0  0  0  0  0  0  0  0  0  0
    5.6710   -0.1780   19.9370 C   0  0  0  0  0  0  0  0  0  0  0  0
    6.2300   -0.4200   18.7070 C   0  0  0  0  0  0  0  0  0  0  0  0
    5.8350    0.1530   17.5420 N   0  0  0  0  0  0  0  0  0  0  0  0
    4.8430    1.0120   17.6080 C   0  0  0  0  0  0  0  0  0  0  0  0
    4.1840    1.3870   18.8180 C   0  0  0  0  0  0  0  0  0  0  0  0
    3.1490    2.3610   18.8740 C   0  0  0  0  0  0  0  0  0  0  0  0
    2.5850    2.7170   20.0720 C   0  0  0  0  0  0  0  0  0  0  0  0
    3.0280    2.1230   21.2730 C   0  0  0  0  0  0  0  0  0  0  0  0
    4.0250    1.1790   21.2430 C   0  0  0  0  0  0  0  0  0  0  0  0
    4.6190    0.7780   20.0200 C   0  0  0  0  0  0  0  0  0  0  0  0
    4.3780    0.7530   22.1770 H   0  0  0  0  0  0  0  0  0  0  0  0
    2.5910    2.4160   22.2240 H   0  0  0  0  0  0  0  0  0  0  0  0
    1.8080    3.4760   20.1140 H   0  0  0  0  0  0  0  0  0  0  0  0
    2.8240    2.8330   17.9500 H   0  0  0  0  0  0  0  0  0  0  0  0
    4.5230    1.4610   16.6670 H   0  0  0  0  0  0  0  0  0  0  0  0
    7.0590   -1.1220   18.6350 H   0  0  0  0  0  0  0  0  0  0  0  0
    5.6450   -0.6480   22.0490 H   0  0  0  0  0  0  0  0  0  0  0  0
    6.0640   -1.9990   21.0060 H   0  0  0  0  0  0  0  0  0  0  0  0
    8.1550    0.4760   21.7670 N   0  0  0  0  0  0  0  0  0  0  0  0
    9.5000    0.8270   21.3440 C   0  0  0  0  0  0  0  0  0  0  0  0
   10.5240    1.0920   22.4220 C   0  0  0  0  0  0  0  0  0  0  0  0
   10.3300    1.6950   23.5940 C   0  0  0  0  0  0  0  0  0  0  0  0
    9.0040    2.2470   24.0650 C   0  0  0  0  0  0  0  0  0  0  0  0
    8.1190    2.7160   22.9000 C   0  0  0  0  0  0  0  0  0  0  0  0
    7.3260    1.6070   22.1890 C   0  0  0  0  0  0  0  0  0  0  0  0
    6.5770    1.2230   22.8840 H   0  0  0  0  0  0  0  0  0  0  0  0
    6.7830    2.0380   21.3320 H   0  0  0  0  0  0  0  0  0  0  0  0
    7.3660    3.4400   23.2350 H   0  0  0  0  0  0  0  0  0  0  0  0
    8.7660    3.2630   22.2020 H   0  0  0  0  0  0  0  0  0  0  0  0
    9.1970    3.0900   24.7350 H   0  0  0  0  0  0  0  0  0  0  0  0
    8.4600    1.5070   24.6670 H   0  0  0  0  0  0  0  0  0  0  0  0
   11.2130    1.8560   24.2170 H   0  0  0  0  0  0  0  0  0  0  0  0
   11.5460    0.8120   22.1580 H   0  0  0  0  0  0  0  0  0  0  0  0
    9.3860    1.7240   20.7130 H   0  0  0  0  0  0  0  0  0  0  0  0
    9.8600    0.0050   20.7170 H   0  0  0  0  0  0  0  0  0  0  0  0
  1  2  2  0  0  0  0
  2  3  1  0  0  0  0
  2 22  1  0  0  0  0
  3  4  1  0  0  0  0
  3 20  1  0  0  0  0
  3 21  1  0  0  0  0
  4  5  2  0  0  0  0
  4 13  1  0  0  0  0
  5  6  1  0  0  0  0
  5 19  1  0  0  0  0
  6  7  2  0  0  0  0
  7  8  1  0  0  0  0
  7 18  1  0  0  0  0
  8  9  2  0  0  0  0
  8 13  1  0  0  0  0
  9 10  1  0  0  0  0
  9 17  1  0  0  0  0
 10 11  2  0  0  0  0
 10 16  1  0  0  0  0
 11 12  1  0  0  0  0
 11 15  1  0  0  0  0
 12 13  2  0  0  0  0
 12 14  1  0  0  0  0
 22 23  1  0  0  0  0
 22 28  1  0  0  0  0
 23 24  1  0  0  0  0
 23 37  1  0  0  0  0
 23 38  1  0  0  0  0
 24 25  2  0  0  0  0
 24 36  1  0  0  0  0
 25 26  1  0  0  0  0
 25 35  1  0  0  0  0
 26 27  1  0  0  0  0
 26 33  1  0  0  0  0
 26 34  1  0  0  0  0
 27 28  1  0  0  0  0
 27 31  1  0  0  0  0
 27 32  1  0  0  0  0
 28 29  1  0  0  0  0
 28 30  1  0  0  0  0
M  END
>  <MODEL>
      12

$$$$
best_conformers_89.pdb
 OpenBabel02042510453D

 38 40  0  0  0  0  0  0  0  0999 V2000
    4.7960   -2.6240   20.8370 O   0  0  0  0  0  0  0  0  0  0  0  0
    5.5720   -2.0470   21.5780 C   0  0  0  0  0  0  0  0  0  0  0  0
    6.4220   -0.8650   21.0480 C   0  0  0  0  0  0  0  0  0  0  0  0
    5.8040   -0.1770   19.8540 C   0  0  0  0  0  0  0  0  0  0  0  0
    6.2310   -0.4470   18.5760 C   0  0  0  0  0  0  0  0  0  0  0  0
    5.7560    0.1330   17.4370 N   0  0  0  0  0  0  0  0  0  0  0  0
    4.7890    1.0090   17.5820 C   0  0  0  0  0  0  0  0  0  0  0  0
    4.2280    1.3770   18.8360 C   0  0  0  0  0  0  0  0  0  0  0  0
    3.1750    2.3220   18.9410 C   0  0  0  0  0  0  0  0  0  0  0  0
    2.6410    2.6430   20.1610 C   0  0  0  0  0  0  0  0  0  0  0  0
    3.1440    2.0270   21.3310 C   0  0  0  0  0  0  0  0  0  0  0  0
    4.1690    1.1150   21.2580 C   0  0  0  0  0  0  0  0  0  0  0  0
    4.7440    0.7680   20.0060 C   0  0  0  0  0  0  0  0  0  0  0  0
    4.5410    0.6540   22.1680 H   0  0  0  0  0  0  0  0  0  0  0  0
    2.7210    2.2860   22.2960 H   0  0  0  0  0  0  0  0  0  0  0  0
    1.8370    3.3690   20.2420 H   0  0  0  0  0  0  0  0  0  0  0  0
    2.8020    2.7880   18.0320 H   0  0  0  0  0  0  0  0  0  0  0  0
    4.4010    1.4850   16.6780 H   0  0  0  0  0  0  0  0  0  0  0  0
    7.0190   -1.1800   18.4020 H   0  0  0  0  0  0  0  0  0  0  0  0
    7.3760   -1.3060   20.7250 H   0  0  0  0  0  0  0  0  0  0  0  0
    6.6900   -0.1500   21.8380 H   0  0  0  0  0  0  0  0  0  0  0  0
    5.7700   -2.4950   22.8630 N   0  0  0  0  0  0  0  0  0  0  0  0
    5.4650   -3.9140   23.1120 C   0  0  0  0  0  0  0  0  0  0  0  0
    6.0920   -4.5030   24.3550 C   0  0  0  0  0  0  0  0  0  0  0  0
    7.3420   -4.2650   24.7490 C   0  0  0  0  0  0  0  0  0  0  0  0
    8.2510   -3.2950   24.0410 C   0  0  0  0  0  0  0  0  0  0  0  0
    7.7760   -1.8400   24.1690 C   0  0  0  0  0  0  0  0  0  0  0  0
    6.2740   -1.6830   23.9510 C   0  0  0  0  0  0  0  0  0  0  0  0
    5.7440   -2.0140   24.8480 H   0  0  0  0  0  0  0  0  0  0  0  0
    5.9900   -0.6390   23.8090 H   0  0  0  0  0  0  0  0  0  0  0  0
    8.0240   -1.4550   25.1630 H   0  0  0  0  0  0  0  0  0  0  0  0
    8.3100   -1.2110   23.4520 H   0  0  0  0  0  0  0  0  0  0  0  0
    9.2730   -3.3820   24.4160 H   0  0  0  0  0  0  0  0  0  0  0  0
    8.2920   -3.5510   22.9750 H   0  0  0  0  0  0  0  0  0  0  0  0
    7.7230   -4.7750   25.6320 H   0  0  0  0  0  0  0  0  0  0  0  0
    5.4930   -5.2200   24.9150 H   0  0  0  0  0  0  0  0  0  0  0  0
    5.8170   -4.4750   22.2370 H   0  0  0  0  0  0  0  0  0  0  0  0
    4.3840   -4.0850   23.1270 H   0  0  0  0  0  0  0  0  0  0  0  0
  1  2  2  0  0  0  0
  2  3  1  0  0  0  0
  2 22  1  0  0  0  0
  3  4  1  0  0  0  0
  3 20  1  0  0  0  0
  3 21  1  0  0  0  0
  4  5  2  0  0  0  0
  4 13  1  0  0  0  0
  5  6  1  0  0  0  0
  5 19  1  0  0  0  0
  6  7  2  0  0  0  0
  7  8  1  0  0  0  0
  7 18  1  0  0  0  0
  8  9  2  0  0  0  0
  8 13  1  0  0  0  0
  9 10  1  0  0  0  0
  9 17  1  0  0  0  0
 10 11  2  0  0  0  0
 10 16  1  0  0  0  0
 11 12  1  0  0  0  0
 11 15  1  0  0  0  0
 12 13  2  0  0  0  0
 12 14  1  0  0  0  0
 22 23  1  0  0  0  0
 22 28  1  0  0  0  0
 23 24  1  0  0  0  0
 23 37  1  0  0  0  0
 23 38  1  0  0  0  0
 24 25  2  0  0  0  0
 24 36  1  0  0  0  0
 25 26  1  0  0  0  0
 25 35  1  0  0  0  0
 26 27  1  0  0  0  0
 26 33  1  0  0  0  0
 26 34  1  0  0  0  0
 27 28  1  0  0  0  0
 27 31  1  0  0  0  0
 27 32  1  0  0  0  0
 28 29  1  0  0  0  0
 28 30  1  0  0  0  0
M  END
>  <MODEL>
      13

$$$$
best_conformers_89.pdb
 OpenBabel02042510453D

 38 40  0  0  0  0  0  0  0  0999 V2000
    7.8900    1.0740   21.2990 O   0  0  0  0  0  0  0  0  0  0  0  0
    7.3420    0.1380   21.8470 C   0  0  0  0  0  0  0  0  0  0  0  0
    6.4650   -0.8390   21.0430 C   0  0  0  0  0  0  0  0  0  0  0  0
    5.8100   -0.1750   19.8500 C   0  0  0  0  0  0  0  0  0  0  0  0
    6.2370   -0.4380   18.5750 C   0  0  0  0  0  0  0  0  0  0  0  0
    5.7560    0.1380   17.4380 N   0  0  0  0  0  0  0  0  0  0  0  0
    4.7870    1.0110   17.5820 C   0  0  0  0  0  0  0  0  0  0  0  0
    4.2300    1.3790   18.8370 C   0  0  0  0  0  0  0  0  0  0  0  0
    3.1800    2.3280   18.9410 C   0  0  0  0  0  0  0  0  0  0  0  0
    2.6580    2.6580   20.1630 C   0  0  0  0  0  0  0  0  0  0  0  0
    3.1690    2.0510   21.3340 C   0  0  0  0  0  0  0  0  0  0  0  0
    4.1880    1.1330   21.2610 C   0  0  0  0  0  0  0  0  0  0  0  0
    4.7510    0.7720   20.0070 C   0  0  0  0  0  0  0  0  0  0  0  0
    4.5730    0.6790   22.1710 H   0  0  0  0  0  0  0  0  0  0  0  0
    2.7520    2.3220   22.2990 H   0  0  0  0  0  0  0  0  0  0  0  0
    1.8560    3.3890   20.2450 H   0  0  0  0  0  0  0  0  0  0  0  0
    2.8010    2.7920   18.0320 H   0  0  0  0  0  0  0  0  0  0  0  0
    4.3980    1.4860   16.6800 H   0  0  0  0  0  0  0  0  0  0  0  0
    7.0270   -1.1700   18.4040 H   0  0  0  0  0  0  0  0  0  0  0  0
    5.7110   -1.2930   21.6980 H   0  0  0  0  0  0  0  0  0  0  0  0
    7.1110   -1.6550   20.6930 H   0  0  0  0  0  0  0  0  0  0  0  0
    7.4290   -0.0610   23.2230 N   0  0  0  0  0  0  0  0  0  0  0  0
    7.9080    1.0810   24.0120 C   0  0  0  0  0  0  0  0  0  0  0  0
    9.4020    1.3220   23.9860 C   0  0  0  0  0  0  0  0  0  0  0  0
   10.2880    0.4110   24.3800 C   0  0  0  0  0  0  0  0  0  0  0  0
    9.9130   -0.9380   24.9450 C   0  0  0  0  0  0  0  0  0  0  0  0
    9.0980   -1.8090   23.9760 C   0  0  0  0  0  0  0  0  0  0  0  0
    7.6320   -1.3800   23.8200 C   0  0  0  0  0  0  0  0  0  0  0  0
    7.0910   -2.1170   23.2230 H   0  0  0  0  0  0  0  0  0  0  0  0
    7.1740   -1.3690   24.8150 H   0  0  0  0  0  0  0  0  0  0  0  0
    9.1300   -2.8530   24.3190 H   0  0  0  0  0  0  0  0  0  0  0  0
    9.5800   -1.7970   22.9950 H   0  0  0  0  0  0  0  0  0  0  0  0
   10.8260   -1.4700   25.2340 H   0  0  0  0  0  0  0  0  0  0  0  0
    9.3330   -0.8100   25.8710 H   0  0  0  0  0  0  0  0  0  0  0  0
   11.3470    0.6420   24.2740 H   0  0  0  0  0  0  0  0  0  0  0  0
    9.7460    2.2810   23.5960 H   0  0  0  0  0  0  0  0  0  0  0  0
    7.3810    1.9740   23.6710 H   0  0  0  0  0  0  0  0  0  0  0  0
    7.5890    0.9070   25.0480 H   0  0  0  0  0  0  0  0  0  0  0  0
  1  2  2  0  0  0  0
  2  3  1  0  0  0  0
  2 22  1  0  0  0  0
  3  4  1  0  0  0  0
  3 20  1  0  0  0  0
  3 21  1  0  0  0  0
  4  5  2  0  0  0  0
  4 13  1  0  0  0  0
  5  6  1  0  0  0  0
  5 19  1  0  0  0  0
  6  7  2  0  0  0  0
  7  8  1  0  0  0  0
  7 18  1  0  0  0  0
  8  9  2  0  0  0  0
  8 13  1  0  0  0  0
  9 10  1  0  0  0  0
  9 17  1  0  0  0  0
 10 11  2  0  0  0  0
 10 16  1  0  0  0  0
 11 12  1  0  0  0  0
 11 15  1  0  0  0  0
 12 13  2  0  0  0  0
 12 14  1  0  0  0  0
 22 23  1  0  0  0  0
 22 28  1  0  0  0  0
 23 24  1  0  0  0  0
 23 37  1  0  0  0  0
 23 38  1  0  0  0  0
 24 25  2  0  0  0  0
 24 36  1  0  0  0  0
 25 26  1  0  0  0  0
 25 35  1  0  0  0  0
 26 27  1  0  0  0  0
 26 33  1  0  0  0  0
 26 34  1  0  0  0  0
 27 28  1  0  0  0  0
 27 31  1  0  0  0  0
 27 32  1  0  0  0  0
 28 29  1  0  0  0  0
 28 30  1  0  0  0  0
M  END
>  <MODEL>
      14

$$$$
best_conformers_89.pdb
 OpenBabel02042510453D

 38 40  0  0  0  0  0  0  0  0999 V2000
    7.9440    1.0490   21.2400 O   0  0  0  0  0  0  0  0  0  0  0  0
    7.4190    0.1220   21.8270 C   0  0  0  0  0  0  0  0  0  0  0  0
    6.4610   -0.8240   21.0580 C   0  0  0  0  0  0  0  0  0  0  0  0
    5.8110   -0.1700   19.8570 C   0  0  0  0  0  0  0  0  0  0  0  0
    6.2410   -0.4350   18.5790 C   0  0  0  0  0  0  0  0  0  0  0  0
    5.7600    0.1380   17.4390 N   0  0  0  0  0  0  0  0  0  0  0  0
    4.7880    1.0090   17.5830 C   0  0  0  0  0  0  0  0  0  0  0  0
    4.2310    1.3790   18.8360 C   0  0  0  0  0  0  0  0  0  0  0  0
    3.1800    2.3270   18.9420 C   0  0  0  0  0  0  0  0  0  0  0  0
    2.6560    2.6580   20.1630 C   0  0  0  0  0  0  0  0  0  0  0  0
    3.1680    2.0530   21.3340 C   0  0  0  0  0  0  0  0  0  0  0  0
    4.1870    1.1360   21.2610 C   0  0  0  0  0  0  0  0  0  0  0  0
    4.7520    0.7750   20.0080 C   0  0  0  0  0  0  0  0  0  0  0  0
    4.5690    0.6840   22.1730 H   0  0  0  0  0  0  0  0  0  0  0  0
    2.7520    2.3220   22.3000 H   0  0  0  0  0  0  0  0  0  0  0  0
    1.8540    3.3890   20.2440 H   0  0  0  0  0  0  0  0  0  0  0  0
    2.8030    2.7900   18.0320 H   0  0  0  0  0  0  0  0  0  0  0  0
    4.3990    1.4830   16.6790 H   0  0  0  0  0  0  0  0  0  0  0  0
    7.0290   -1.1700   18.4050 H   0  0  0  0  0  0  0  0  0  0  0  0
    5.7110   -1.2880   21.7090 H   0  0  0  0  0  0  0  0  0  0  0  0
    7.0830   -1.6540   20.6980 H   0  0  0  0  0  0  0  0  0  0  0  0
    7.7120   -0.1460   23.1540 N   0  0  0  0  0  0  0  0  0  0  0  0
    6.8910   -0.9620   24.0260 C   0  0  0  0  0  0  0  0  0  0  0  0
    7.1700   -2.4420   23.9850 C   0  0  0  0  0  0  0  0  0  0  0  0
    8.3740   -2.9750   23.7990 C   0  0  0  0  0  0  0  0  0  0  0  0
    9.6580   -2.2120   23.5720 C   0  0  0  0  0  0  0  0  0  0  0  0
    9.7680   -0.8940   24.3420 C   0  0  0  0  0  0  0  0  0  0  0  0
    9.0070    0.2700   23.6930 C   0  0  0  0  0  0  0  0  0  0  0  0
    8.8780    1.0830   24.4220 H   0  0  0  0  0  0  0  0  0  0  0  0
    9.5800    0.6780   22.8600 H   0  0  0  0  0  0  0  0  0  0  0  0
    9.4350   -1.0490   25.3720 H   0  0  0  0  0  0  0  0  0  0  0  0
   10.8230   -0.6110   24.4360 H   0  0  0  0  0  0  0  0  0  0  0  0
    9.7640   -1.9930   22.5040 H   0  0  0  0  0  0  0  0  0  0  0  0
   10.5030   -2.8640   23.8200 H   0  0  0  0  0  0  0  0  0  0  0  0
    8.4570   -4.0590   23.8330 H   0  0  0  0  0  0  0  0  0  0  0  0
    6.3110   -3.1010   24.1100 H   0  0  0  0  0  0  0  0  0  0  0  0
    5.8360   -0.7600   23.8330 H   0  0  0  0  0  0  0  0  0  0  0  0
    7.0580   -0.5930   25.0430 H   0  0  0  0  0  0  0  0  0  0  0  0
  1  2  2  0  0  0  0
  2  3  1  0  0  0  0
  2 22  1  0  0  0  0
  3  4  1  0  0  0  0
  3 20  1  0  0  0  0
  3 21  1  0  0  0  0
  4  5  2  0  0  0  0
  4 13  1  0  0  0  0
  5  6  1  0  0  0  0
  5 19  1  0  0  0  0
  6  7  2  0  0  0  0
  7  8  1  0  0  0  0
  7 18  1  0  0  0  0
  8  9  2  0  0  0  0
  8 13  1  0  0  0  0
  9 10  1  0  0  0  0
  9 17  1  0  0  0  0
 10 11  2  0  0  0  0
 10 16  1  0  0  0  0
 11 12  1  0  0  0  0
 11 15  1  0  0  0  0
 12 13  2  0  0  0  0
 12 14  1  0  0  0  0
 22 23  1  0  0  0  0
 22 28  1  0  0  0  0
 23 24  1  0  0  0  0
 23 37  1  0  0  0  0
 23 38  1  0  0  0  0
 24 25  2  0  0  0  0
 24 36  1  0  0  0  0
 25 26  1  0  0  0  0
 25 35  1  0  0  0  0
 26 27  1  0  0  0  0
 26 33  1  0  0  0  0
 26 34  1  0  0  0  0
 27 28  1  0  0  0  0
 27 31  1  0  0  0  0
 27 32  1  0  0  0  0
 28 29  1  0  0  0  0
 28 30  1  0  0  0  0
M  END
>  <MODEL>
      15

$$$$
