best_conformers_30.pdb
 OpenBabel02042510453D

 66 71  0  0  1  0  0  0  0  0999 V2000
    8.2530   -8.3550   23.3060 C   0  0  0  0  0  0  0  0  0  0  0  0
    7.5730   -7.2770   22.6220 N   0  0  0  0  0  0  0  0  0  0  0  0
    6.2460   -7.1030   22.8260 C   0  0  0  0  0  0  0  0  0  0  0  0
    5.6240   -7.8320   23.5790 O   0  0  0  0  0  0  0  0  0  0  0  0
    5.5890   -5.9310   22.0970 C   0  0  0  0  0  0  0  0  0  0  0  0
    5.6360   -4.7100   22.8640 N   0  0  0  0  0  0  0  0  0  0  0  0
    6.8290   -3.8850   22.8020 C   0  0  0  0  0  0  0  0  0  0  0  0
    6.4830   -2.3840   22.7790 C   0  0  2  0  0  0  0  0  0  0  0  0
    5.7810   -2.0220   21.4530 C   0  0  0  0  0  0  0  0  0  0  0  0
    4.8630   -2.6040   20.9230 O   0  0  0  0  0  0  0  0  0  0  0  0
    6.3700   -0.8840   20.9580 N   0  0  0  0  0  0  0  0  0  0  0  0
    5.7950   -0.2080   19.8500 C   0  0  0  0  0  0  0  0  0  0  0  0
    6.2540   -0.4710   18.5890 C   0  0  0  0  0  0  0  0  0  0  0  0
    5.7890    0.1260   17.4600 N   0  0  0  0  0  0  0  0  0  0  0  0
    4.8190    0.9970   17.6070 C   0  0  0  0  0  0  0  0  0  0  0  0
    4.2390    1.3530   18.8600 C   0  0  0  0  0  0  0  0  0  0  0  0
    3.1920    2.3060   18.9610 C   0  0  0  0  0  0  0  0  0  0  0  0
    2.6660    2.6350   20.1780 C   0  0  0  0  0  0  0  0  0  0  0  0
    3.1600    2.0260   21.3560 C   0  0  0  0  0  0  0  0  0  0  0  0
    4.1670    1.0970   21.2900 C   0  0  0  0  0  0  0  0  0  0  0  0
    4.7360    0.7380   20.0320 C   0  0  0  0  0  0  0  0  0  0  0  0
    4.5400    0.6420   22.2070 H   0  0  0  0  0  0  0  0  0  0  0  0
    2.7360    2.2980   22.3180 H   0  0  0  0  0  0  0  0  0  0  0  0
    1.8630    3.3650   20.2510 H   0  0  0  0  0  0  0  0  0  0  0  0
    2.8300    2.7740   18.0490 H   0  0  0  0  0  0  0  0  0  0  0  0
    4.4330    1.4690   16.7020 H   0  0  0  0  0  0  0  0  0  0  0  0
    7.0370   -1.2150   18.4390 H   0  0  0  0  0  0  0  0  0  0  0  0
    7.4490   -0.3510   21.7590 C   0  0  0  0  0  0  0  0  0  0  0  0
    7.7440   -1.4510   22.8010 C   0  0  2  0  0  0  0  0  0  0  0  0
    9.1210   -2.1200   22.5300 C   0  0  0  0  0  0  0  0  0  0  0  0
   10.3160   -1.1920   22.7150 C   0  0  0  0  0  0  0  0  0  0  0  0
   10.6830   -0.7680   23.9980 C   0  0  0  0  0  0  0  0  0  0  0  0
   11.7570    0.0960   24.1970 C   0  0  0  0  0  0  0  0  0  0  0  0
   12.5000    0.5450   23.1080 C   0  0  0  0  0  0  0  0  0  0  0  0
   12.1700    0.1110   21.8320 C   0  0  0  0  0  0  0  0  0  0  0  0
   11.0750   -0.7330   21.6340 C   0  0  0  0  0  0  0  0  0  0  0  0
   10.8030   -1.0370   20.6240 H   0  0  0  0  0  0  0  0  0  0  0  0
   12.7890    0.4430   21.0020 H   0  0  0  0  0  0  0  0  0  0  0  0
   13.3320    1.2350   23.2430 H   0  0  0  0  0  0  0  0  0  0  0  0
   12.0160    0.4130   25.2050 H   0  0  0  0  0  0  0  0  0  0  0  0
   10.1200   -1.1370   24.8550 H   0  0  0  0  0  0  0  0  0  0  0  0
    9.2320   -2.9580   23.2270 H   0  0  0  0  0  0  0  0  0  0  0  0
    9.1230   -2.5510   21.5190 H   0  0  0  0  0  0  0  0  0  0  0  0
    7.8210   -1.0360   23.8150 H   0  0  0  0  0  0  0  0  0  0  0  0
    8.3130   -0.1440   21.1190 H   0  0  0  0  0  0  0  0  0  0  0  0
    7.1600    0.5970   22.2340 H   0  0  0  0  0  0  0  0  0  0  0  0
    5.5200   -2.1220   23.9390 C   0  0  0  0  0  0  0  0  0  0  0  0
    5.3760   -0.8390   24.4800 C   0  0  0  0  0  0  0  0  0  0  0  0
    4.4460   -0.6110   25.4820 C   0  0  0  0  0  0  0  0  0  0  0  0
    4.2580    1.0020   26.1250 Cl  0  0  0  0  0  0  0  0  0  0  0  0
    3.6410   -1.6360   25.9810 C   0  0  0  0  0  0  0  0  0  0  0  0
    3.7600   -2.8990   25.4360 C   0  0  0  0  0  0  0  0  0  0  0  0
    4.6760   -3.1320   24.4130 C   0  0  0  0  0  0  0  0  0  0  0  0
    4.6540   -4.4890   23.7840 C   0  0  0  0  0  0  0  0  0  0  0  0
    3.7910   -5.3130   24.0450 O   0  0  0  0  0  0  0  0  0  0  0  0
    3.1380   -3.7340   25.7490 H   0  0  0  0  0  0  0  0  0  0  0  0
    2.9180   -1.4250   26.7580 H   0  0  0  0  0  0  0  0  0  0  0  0
    5.9680    0.0010   24.1260 H   0  0  0  0  0  0  0  0  0  0  0  0
    7.3780   -4.1400   21.8920 H   0  0  0  0  0  0  0  0  0  0  0  0
    7.4530   -4.0820   23.6870 H   0  0  0  0  0  0  0  0  0  0  0  0
    4.5410   -6.1810   21.9290 H   0  0  0  0  0  0  0  0  0  0  0  0
    6.0800   -5.7240   21.1430 H   0  0  0  0  0  0  0  0  0  0  0  0
    8.0990   -6.6240   22.0720 H   0  0  0  0  0  0  0  0  0  0  0  0
    8.0550   -8.2900   24.3740 H   0  0  0  0  0  0  0  0  0  0  0  0
    9.3250   -8.2900   23.1220 H   0  0  0  0  0  0  0  0  0  0  0  0
    7.8760   -9.3220   22.9660 H   0  0  0  0  0  0  0  0  0  0  0  0
  1  2  1  0  0  0  0
  1 64  1  0  0  0  0
  1 65  1  0  0  0  0
  1 66  1  0  0  0  0
  2  3  1  0  0  0  0
  2 63  1  0  0  0  0
  3  4  2  0  0  0  0
  3  5  1  0  0  0  0
  5  6  1  0  0  0  0
  5 61  1  0  0  0  0
  5 62  1  0  0  0  0
  6  7  1  0  0  0  0
  6 54  1  0  0  0  0
  7  8  1  0  0  0  0
  7 59  1  0  0  0  0
  7 60  1  0  0  0  0
  8  9  1  6  0  0  0
  8 29  1  0  0  0  0
  8 47  1  0  0  0  0
  9 10  2  0  0  0  0
  9 11  1  0  0  0  0
 11 12  1  0  0  0  0
 11 28  1  0  0  0  0
 12 13  2  0  0  0  0
 12 21  1  0  0  0  0
 13 14  1  0  0  0  0
 13 27  1  0  0  0  0
 14 15  2  0  0  0  0
 15 16  1  0  0  0  0
 15 26  1  0  0  0  0
 16 17  2  0  0  0  0
 16 21  1  0  0  0  0
 17 18  1  0  0  0  0
 17 25  1  0  0  0  0
 18 19  2  0  0  0  0
 18 24  1  0  0  0  0
 19 20  1  0  0  0  0
 19 23  1  0  0  0  0
 20 21  2  0  0  0  0
 20 22  1  0  0  0  0
 28 29  1  0  0  0  0
 28 45  1  0  0  0  0
 28 46  1  0  0  0  0
 29 30  1  0  0  0  0
 29 44  1  1  0  0  0
 30 31  1  0  0  0  0
 30 42  1  0  0  0  0
 30 43  1  0  0  0  0
 31 32  2  0  0  0  0
 31 36  1  0  0  0  0
 32 33  1  0  0  0  0
 32 41  1  0  0  0  0
 33 34  2  0  0  0  0
 33 40  1  0  0  0  0
 34 35  1  0  0  0  0
 34 39  1  0  0  0  0
 35 36  2  0  0  0  0
 35 38  1  0  0  0  0
 36 37  1  0  0  0  0
 47 48  2  0  0  0  0
 47 53  1  0  0  0  0
 48 49  1  0  0  0  0
 48 58  1  0  0  0  0
 49 50  1  0  0  0  0
 49 51  2  0  0  0  0
 51 52  1  0  0  0  0
 51 57  1  0  0  0  0
 52 53  2  0  0  0  0
 52 56  1  0  0  0  0
 53 54  1  0  0  0  0
 54 55  2  0  0  0  0
M  END
>  <MODEL>
       1

$$$$
best_conformers_30.pdb
 OpenBabel02042510453D

 66 71  0  0  1  0  0  0  0  0999 V2000
    7.7810   -8.1960   23.5490 C   0  0  0  0  0  0  0  0  0  0  0  0
    7.0700   -7.0550   23.0040 N   0  0  0  0  0  0  0  0  0  0  0  0
    5.8410   -6.7430   23.5040 C   0  0  0  0  0  0  0  0  0  0  0  0
    5.3450   -7.3950   24.4050 O   0  0  0  0  0  0  0  0  0  0  0  0
    5.1270   -5.5340   22.8780 C   0  0  0  0  0  0  0  0  0  0  0  0
    5.4620   -4.2610   23.4900 N   0  0  0  0  0  0  0  0  0  0  0  0
    6.7350   -3.6290   23.1830 C   0  0  0  0  0  0  0  0  0  0  0  0
    6.5810   -2.0960   22.9890 C   0  0  2  0  0  0  0  0  0  0  0  0
    5.8550   -1.8640   21.6490 C   0  0  0  0  0  0  0  0  0  0  0  0
    4.8920   -2.4680   21.2240 O   0  0  0  0  0  0  0  0  0  0  0  0
    6.4830   -0.8400   20.9850 N   0  0  0  0  0  0  0  0  0  0  0  0
    5.8750   -0.2040   19.8730 C   0  0  0  0  0  0  0  0  0  0  0  0
    6.3450   -0.4490   18.6090 C   0  0  0  0  0  0  0  0  0  0  0  0
    5.8540    0.1190   17.4780 N   0  0  0  0  0  0  0  0  0  0  0  0
    4.8580    0.9630   17.6160 C   0  0  0  0  0  0  0  0  0  0  0  0
    4.2810    1.3190   18.8700 C   0  0  0  0  0  0  0  0  0  0  0  0
    3.2310    2.2720   18.9580 C   0  0  0  0  0  0  0  0  0  0  0  0
    2.7100    2.6170   20.1740 C   0  0  0  0  0  0  0  0  0  0  0  0
    3.2100    2.0210   21.3550 C   0  0  0  0  0  0  0  0  0  0  0  0
    4.2200    1.0920   21.3000 C   0  0  0  0  0  0  0  0  0  0  0  0
    4.7920    0.7200   20.0450 C   0  0  0  0  0  0  0  0  0  0  0  0
    4.5860    0.6430   22.2240 H   0  0  0  0  0  0  0  0  0  0  0  0
    2.7900    2.3080   22.3150 H   0  0  0  0  0  0  0  0  0  0  0  0
    1.9130    3.3540   20.2420 H   0  0  0  0  0  0  0  0  0  0  0  0
    2.8610    2.7210   18.0400 H   0  0  0  0  0  0  0  0  0  0  0  0
    4.4540    1.4170   16.7080 H   0  0  0  0  0  0  0  0  0  0  0  0
    7.1620   -1.1530   18.4630 H   0  0  0  0  0  0  0  0  0  0  0  0
    7.7260   -0.3990   21.5780 C   0  0  0  0  0  0  0  0  0  0  0  0
    7.9220   -1.3020   22.8210 C   0  0  2  0  0  0  0  0  0  0  0  0
    9.1890   -2.1720   22.7230 C   0  0  0  0  0  0  0  0  0  0  0  0
   10.5150   -1.4490   22.6840 C   0  0  0  0  0  0  0  0  0  0  0  0
   11.0410   -0.7550   23.7780 C   0  0  0  0  0  0  0  0  0  0  0  0
   12.3230   -0.2040   23.7090 C   0  0  0  0  0  0  0  0  0  0  0  0
   13.0630   -0.2680   22.5300 C   0  0  0  0  0  0  0  0  0  0  0  0
   12.5390   -0.9400   21.4360 C   0  0  0  0  0  0  0  0  0  0  0  0
   11.2970   -1.5510   21.5380 C   0  0  0  0  0  0  0  0  0  0  0  0
   10.9570   -2.1750   20.7220 H   0  0  0  0  0  0  0  0  0  0  0  0
   13.0940   -1.0320   20.5060 H   0  0  0  0  0  0  0  0  0  0  0  0
   14.0510    0.1830   22.4620 H   0  0  0  0  0  0  0  0  0  0  0  0
   12.7620    0.2640   24.5870 H   0  0  0  0  0  0  0  0  0  0  0  0
   10.4850   -0.6970   24.7130 H   0  0  0  0  0  0  0  0  0  0  0  0
    9.1280   -2.7930   21.8240 H   0  0  0  0  0  0  0  0  0  0  0  0
    9.2380   -2.8430   23.5850 H   0  0  0  0  0  0  0  0  0  0  0  0
    8.0810   -0.6970   23.7230 H   0  0  0  0  0  0  0  0  0  0  0  0
    8.5510   -0.4980   20.8610 H   0  0  0  0  0  0  0  0  0  0  0  0
    7.6690    0.6620   21.8520 H   0  0  0  0  0  0  0  0  0  0  0  0
    5.7640   -1.5370   24.1510 C   0  0  0  0  0  0  0  0  0  0  0  0
    5.8230   -0.1740   24.4870 C   0  0  0  0  0  0  0  0  0  0  0  0
    5.1350    0.3030   25.5900 C   0  0  0  0  0  0  0  0  0  0  0  0
    5.2710    1.9850   26.0210 Cl  0  0  0  0  0  0  0  0  0  0  0  0
    4.3470   -0.5360   26.3750 C   0  0  0  0  0  0  0  0  0  0  0  0
    4.2260   -1.8590   26.0000 C   0  0  0  0  0  0  0  0  0  0  0  0
    4.9040   -2.3550   24.8860 C   0  0  0  0  0  0  0  0  0  0  0  0
    4.6410   -3.7710   24.4710 C   0  0  0  0  0  0  0  0  0  0  0  0
    3.7360   -4.4320   24.9590 O   0  0  0  0  0  0  0  0  0  0  0  0
    3.5950   -2.5420   26.5560 H   0  0  0  0  0  0  0  0  0  0  0  0
    3.8280   -0.1400   27.2420 H   0  0  0  0  0  0  0  0  0  0  0  0
    6.3980    0.5420   23.9050 H   0  0  0  0  0  0  0  0  0  0  0  0
    7.4490   -3.8410   23.9910 H   0  0  0  0  0  0  0  0  0  0  0  0
    7.1130   -4.0710   22.2590 H   0  0  0  0  0  0  0  0  0  0  0  0
    5.3220   -5.4610   21.8000 H   0  0  0  0  0  0  0  0  0  0  0  0
    4.0590   -5.6860   23.0430 H   0  0  0  0  0  0  0  0  0  0  0  0
    7.4490   -6.5630   22.2140 H   0  0  0  0  0  0  0  0  0  0  0  0
    7.2020   -9.1180   23.4260 H   0  0  0  0  0  0  0  0  0  0  0  0
    8.7390   -8.2990   23.0390 H   0  0  0  0  0  0  0  0  0  0  0  0
    7.9610   -8.0550   24.6180 H   0  0  0  0  0  0  0  0  0  0  0  0
  1  2  1  0  0  0  0
  1 64  1  0  0  0  0
  1 65  1  0  0  0  0
  1 66  1  0  0  0  0
  2  3  1  0  0  0  0
  2 63  1  0  0  0  0
  3  4  2  0  0  0  0
  3  5  1  0  0  0  0
  5  6  1  0  0  0  0
  5 61  1  0  0  0  0
  5 62  1  0  0  0  0
  6  7  1  0  0  0  0
  6 54  1  0  0  0  0
  7  8  1  0  0  0  0
  7 59  1  0  0  0  0
  7 60  1  0  0  0  0
  8  9  1  6  0  0  0
  8 29  1  0  0  0  0
  8 47  1  0  0  0  0
  9 10  2  0  0  0  0
  9 11  1  0  0  0  0
 11 12  1  0  0  0  0
 11 28  1  0  0  0  0
 12 13  2  0  0  0  0
 12 21  1  0  0  0  0
 13 14  1  0  0  0  0
 13 27  1  0  0  0  0
 14 15  2  0  0  0  0
 15 16  1  0  0  0  0
 15 26  1  0  0  0  0
 16 17  2  0  0  0  0
 16 21  1  0  0  0  0
 17 18  1  0  0  0  0
 17 25  1  0  0  0  0
 18 19  2  0  0  0  0
 18 24  1  0  0  0  0
 19 20  1  0  0  0  0
 19 23  1  0  0  0  0
 20 21  2  0  0  0  0
 20 22  1  0  0  0  0
 28 29  1  0  0  0  0
 28 45  1  0  0  0  0
 28 46  1  0  0  0  0
 29 30  1  0  0  0  0
 29 44  1  1  0  0  0
 30 31  1  0  0  0  0
 30 42  1  0  0  0  0
 30 43  1  0  0  0  0
 31 32  2  0  0  0  0
 31 36  1  0  0  0  0
 32 33  1  0  0  0  0
 32 41  1  0  0  0  0
 33 34  2  0  0  0  0
 33 40  1  0  0  0  0
 34 35  1  0  0  0  0
 34 39  1  0  0  0  0
 35 36  2  0  0  0  0
 35 38  1  0  0  0  0
 36 37  1  0  0  0  0
 47 48  2  0  0  0  0
 47 53  1  0  0  0  0
 48 49  1  0  0  0  0
 48 58  1  0  0  0  0
 49 50  1  0  0  0  0
 49 51  2  0  0  0  0
 51 52  1  0  0  0  0
 51 57  1  0  0  0  0
 52 53  2  0  0  0  0
 52 56  1  0  0  0  0
 53 54  1  0  0  0  0
 54 55  2  0  0  0  0
M  END
>  <MODEL>
       2

$$$$
