best_conformers_29.pdb
 OpenBabel02042510453D

 67 72  0  0  1  0  0  0  0  0999 V2000
    5.7560   -8.0770   25.3430 C   0  0  0  0  0  0  0  0  0  0  0  0
    5.1560   -6.7970   24.9330 N   0  3  0  0  0  0  0  0  0  0  0  0
    5.2620   -6.5640   23.4610 C   0  0  0  0  0  0  0  0  0  0  0  0
    4.5900   -5.2480   23.0770 C   0  0  0  0  0  0  0  0  0  0  0  0
    5.1890   -4.0720   23.6900 N   0  0  0  0  0  0  0  0  0  0  0  0
    6.4950   -3.6410   23.2350 C   0  0  0  0  0  0  0  0  0  0  0  0
    6.5600   -2.1130   22.9880 C   0  0  2  0  0  0  0  0  0  0  0  0
    5.6940   -1.7350   21.7630 C   0  0  0  0  0  0  0  0  0  0  0  0
    4.5630   -2.1080   21.5320 O   0  0  0  0  0  0  0  0  0  0  0  0
    6.4030   -0.8700   20.9650 N   0  0  0  0  0  0  0  0  0  0  0  0
    5.8050   -0.2080   19.8590 C   0  0  0  0  0  0  0  0  0  0  0  0
    6.2560   -0.4580   18.5870 C   0  0  0  0  0  0  0  0  0  0  0  0
    5.7790    0.1300   17.4620 N   0  0  0  0  0  0  0  0  0  0  0  0
    4.8060    1.0000   17.6070 C   0  0  0  0  0  0  0  0  0  0  0  0
    4.2390    1.3630   18.8630 C   0  0  0  0  0  0  0  0  0  0  0  0
    3.1920    2.3220   18.9570 C   0  0  0  0  0  0  0  0  0  0  0  0
    2.6790    2.6700   20.1750 C   0  0  0  0  0  0  0  0  0  0  0  0
    3.2000    2.0860   21.3530 C   0  0  0  0  0  0  0  0  0  0  0  0
    4.2140    1.1620   21.2920 C   0  0  0  0  0  0  0  0  0  0  0  0
    4.7520    0.7560   20.0340 C   0  0  0  0  0  0  0  0  0  0  0  0
    4.6040    0.7270   22.2120 H   0  0  0  0  0  0  0  0  0  0  0  0
    2.7860    2.3710   22.3160 H   0  0  0  0  0  0  0  0  0  0  0  0
    1.8780    3.4020   20.2480 H   0  0  0  0  0  0  0  0  0  0  0  0
    2.8170    2.7760   18.0410 H   0  0  0  0  0  0  0  0  0  0  0  0
    4.4140    1.4620   16.7000 H   0  0  0  0  0  0  0  0  0  0  0  0
    7.0470   -1.1900   18.4270 H   0  0  0  0  0  0  0  0  0  0  0  0
    7.7620   -0.6190   21.4070 C   0  0  0  0  0  0  0  0  0  0  0  0
    7.9850   -1.5860   22.5950 C   0  0  2  0  0  0  0  0  0  0  0  0
    9.0600   -2.6490   22.2400 C   0  0  0  0  0  0  0  0  0  0  0  0
   10.3680   -2.0660   21.9740 N   0  0  0  0  0  0  0  0  0  0  0  0
   11.2030   -1.6110   22.9210 C   0  0  0  0  0  0  0  0  0  0  0  0
   12.3580   -1.0560   22.4790 N   0  0  0  0  0  0  0  0  0  0  0  0
   13.1360   -0.6020   23.4450 C   0  0  0  0  0  0  0  0  0  0  0  0
   12.8930   -0.6610   24.7630 N   0  0  0  0  0  0  0  0  0  0  0  0
   11.7370   -1.2500   25.0660 C   0  0  0  0  0  0  0  0  0  0  0  0
   10.8410   -1.7330   24.2130 N   0  0  0  0  0  0  0  0  0  0  0  0
   11.4910   -1.3430   26.1260 H   0  0  0  0  0  0  0  0  0  0  0  0
   14.0780   -0.1250   23.1550 H   0  0  0  0  0  0  0  0  0  0  0  0
   10.7390   -2.0160   21.0370 H   0  0  0  0  0  0  0  0  0  0  0  0
    8.7800   -3.1880   21.3330 H   0  0  0  0  0  0  0  0  0  0  0  0
    9.1710   -3.3620   23.0660 H   0  0  0  0  0  0  0  0  0  0  0  0
    8.4120   -1.0610   23.4570 H   0  0  0  0  0  0  0  0  0  0  0  0
    8.4590   -0.7990   20.5810 H   0  0  0  0  0  0  0  0  0  0  0  0
    7.8930    0.4310   21.7050 H   0  0  0  0  0  0  0  0  0  0  0  0
    5.9730   -1.4200   24.2200 C   0  0  0  0  0  0  0  0  0  0  0  0
    6.2700   -0.0750   24.4830 C   0  0  0  0  0  0  0  0  0  0  0  0
    5.7080    0.5610   25.5770 C   0  0  0  0  0  0  0  0  0  0  0  0
    6.0940    2.2300   25.8920 Cl  0  0  0  0  0  0  0  0  0  0  0  0
    4.8310   -0.1020   26.4310 C   0  0  0  0  0  0  0  0  0  0  0  0
    4.4990   -1.4140   26.1510 C   0  0  0  0  0  0  0  0  0  0  0  0
    5.0430   -2.0730   25.0470 C   0  0  0  0  0  0  0  0  0  0  0  0
    4.5730   -3.4730   24.7400 C   0  0  0  0  0  0  0  0  0  0  0  0
    3.7000   -4.0540   25.3830 O   0  0  0  0  0  0  0  0  0  0  0  0
    3.7950   -1.9580   26.7700 H   0  0  0  0  0  0  0  0  0  0  0  0
    4.4100    0.4240   27.2810 H   0  0  0  0  0  0  0  0  0  0  0  0
    6.9250    0.5080   23.8420 H   0  0  0  0  0  0  0  0  0  0  0  0
    6.6990   -4.1720   22.3030 H   0  0  0  0  0  0  0  0  0  0  0  0
    7.2540   -3.9120   23.9870 H   0  0  0  0  0  0  0  0  0  0  0  0
    4.6350   -5.1180   21.9890 H   0  0  0  0  0  0  0  0  0  0  0  0
    3.5420   -5.2620   23.3840 H   0  0  0  0  0  0  0  0  0  0  0  0
    4.7950   -7.3990   22.9310 H   0  0  0  0  0  0  0  0  0  0  0  0
    6.3190   -6.5570   23.1790 H   0  0  0  0  0  0  0  0  0  0  0  0
    5.6300   -6.0030   25.4150 H   0  0  0  0  0  0  0  0  0  0  0  0
    4.1420   -6.7590   25.2040 H   0  0  0  0  0  0  0  0  0  0  0  0
    6.8120   -8.1110   25.0620 H   0  0  0  0  0  0  0  0  0  0  0  0
    5.6730   -8.2160   26.4170 H   0  0  0  0  0  0  0  0  0  0  0  0
    5.2620   -8.9070   24.8330 H   0  0  0  0  0  0  0  0  0  0  0  0
  1  2  1  0  0  0  0
  1 65  1  0  0  0  0
  1 66  1  0  0  0  0
  1 67  1  0  0  0  0
  2  3  1  0  0  0  0
  2 63  1  0  0  0  0
  2 64  1  0  0  0  0
  3  4  1  0  0  0  0
  3 61  1  0  0  0  0
  3 62  1  0  0  0  0
  4  5  1  0  0  0  0
  4 59  1  0  0  0  0
  4 60  1  0  0  0  0
  5  6  1  0  0  0  0
  5 52  1  0  0  0  0
  6  7  1  0  0  0  0
  6 57  1  0  0  0  0
  6 58  1  0  0  0  0
  7  8  1  6  0  0  0
  7 28  1  0  0  0  0
  7 45  1  0  0  0  0
  8  9  2  0  0  0  0
  8 10  1  0  0  0  0
 10 11  1  0  0  0  0
 10 27  1  0  0  0  0
 11 12  2  0  0  0  0
 11 20  1  0  0  0  0
 12 13  1  0  0  0  0
 12 26  1  0  0  0  0
 13 14  2  0  0  0  0
 14 15  1  0  0  0  0
 14 25  1  0  0  0  0
 15 16  2  0  0  0  0
 15 20  1  0  0  0  0
 16 17  1  0  0  0  0
 16 24  1  0  0  0  0
 17 18  2  0  0  0  0
 17 23  1  0  0  0  0
 18 19  1  0  0  0  0
 18 22  1  0  0  0  0
 19 20  2  0  0  0  0
 19 21  1  0  0  0  0
 27 28  1  0  0  0  0
 27 43  1  0  0  0  0
 27 44  1  0  0  0  0
 28 29  1  0  0  0  0
 28 42  1  1  0  0  0
 29 30  1  0  0  0  0
 29 40  1  0  0  0  0
 29 41  1  0  0  0  0
 30 31  1  0  0  0  0
 30 39  1  0  0  0  0
 31 32  2  0  0  0  0
 31 36  1  0  0  0  0
 32 33  1  0  0  0  0
 33 34  2  0  0  0  0
 33 38  1  0  0  0  0
 34 35  1  0  0  0  0
 35 36  2  0  0  0  0
 35 37  1  0  0  0  0
 45 46  2  0  0  0  0
 45 51  1  0  0  0  0
 46 47  1  0  0  0  0
 46 56  1  0  0  0  0
 47 48  1  0  0  0  0
 47 49  2  0  0  0  0
 49 50  1  0  0  0  0
 49 55  1  0  0  0  0
 50 51  2  0  0  0  0
 50 54  1  0  0  0  0
 51 52  1  0  0  0  0
 52 53  2  0  0  0  0
M  CHG  1   2   1
M  END
>  <MODEL>
       1

$$$$
best_conformers_29.pdb
 OpenBabel02042510453D

 67 72  0  0  1  0  0  0  0  0999 V2000
    6.1260   -8.3060   24.4900 C   0  0  0  0  0  0  0  0  0  0  0  0
    6.0020   -6.9940   23.8560 N   0  3  0  0  0  0  0  0  0  0  0  0
    4.5910   -6.5240   23.7470 C   0  0  0  0  0  0  0  0  0  0  0  0
    4.5030   -5.1910   23.0080 C   0  0  0  0  0  0  0  0  0  0  0  0
    5.1800   -4.0790   23.6690 N   0  0  0  0  0  0  0  0  0  0  0  0
    6.4920   -3.6410   23.2320 C   0  0  0  0  0  0  0  0  0  0  0  0
    6.5570   -2.1130   22.9850 C   0  0  2  0  0  0  0  0  0  0  0  0
    5.6910   -1.7400   21.7610 C   0  0  0  0  0  0  0  0  0  0  0  0
    4.5630   -2.1210   21.5290 O   0  0  0  0  0  0  0  0  0  0  0  0
    6.4000   -0.8710   20.9650 N   0  0  0  0  0  0  0  0  0  0  0  0
    5.8040   -0.2080   19.8580 C   0  0  0  0  0  0  0  0  0  0  0  0
    6.2550   -0.4580   18.5860 C   0  0  0  0  0  0  0  0  0  0  0  0
    5.7780    0.1310   17.4610 N   0  0  0  0  0  0  0  0  0  0  0  0
    4.8040    1.0010   17.6060 C   0  0  0  0  0  0  0  0  0  0  0  0
    4.2380    1.3640   18.8620 C   0  0  0  0  0  0  0  0  0  0  0  0
    3.1910    2.3230   18.9560 C   0  0  0  0  0  0  0  0  0  0  0  0
    2.6780    2.6700   20.1750 C   0  0  0  0  0  0  0  0  0  0  0  0
    3.1990    2.0840   21.3520 C   0  0  0  0  0  0  0  0  0  0  0  0
    4.2130    1.1610   21.2900 C   0  0  0  0  0  0  0  0  0  0  0  0
    4.7520    0.7570   20.0320 C   0  0  0  0  0  0  0  0  0  0  0  0
    4.6030    0.7250   22.2090 H   0  0  0  0  0  0  0  0  0  0  0  0
    2.7860    2.3690   22.3160 H   0  0  0  0  0  0  0  0  0  0  0  0
    1.8770    3.4020   20.2490 H   0  0  0  0  0  0  0  0  0  0  0  0
    2.8150    2.7780   18.0410 H   0  0  0  0  0  0  0  0  0  0  0  0
    4.4130    1.4640   16.6990 H   0  0  0  0  0  0  0  0  0  0  0  0
    7.0450   -1.1890   18.4270 H   0  0  0  0  0  0  0  0  0  0  0  0
    7.7560   -0.6160   21.4140 C   0  0  0  0  0  0  0  0  0  0  0  0
    7.9800   -1.5860   22.5990 C   0  0  2  0  0  0  0  0  0  0  0  0
    9.0550   -2.6480   22.2430 C   0  0  0  0  0  0  0  0  0  0  0  0
   10.3640   -2.0660   21.9880 N   0  0  0  0  0  0  0  0  0  0  0  0
   11.1960   -1.6160   22.9430 C   0  0  0  0  0  0  0  0  0  0  0  0
   10.8260   -1.7470   24.2320 N   0  0  0  0  0  0  0  0  0  0  0  0
   11.7180   -1.2700   25.0940 C   0  0  0  0  0  0  0  0  0  0  0  0
   12.8750   -0.6790   24.8040 N   0  0  0  0  0  0  0  0  0  0  0  0
   13.1240   -0.6100   23.4880 C   0  0  0  0  0  0  0  0  0  0  0  0
   12.3520   -1.0560   22.5130 N   0  0  0  0  0  0  0  0  0  0  0  0
   14.0680   -0.1320   23.2070 H   0  0  0  0  0  0  0  0  0  0  0  0
   11.4660   -1.3700   26.1520 H   0  0  0  0  0  0  0  0  0  0  0  0
   10.7350   -2.0090   21.0520 H   0  0  0  0  0  0  0  0  0  0  0  0
    9.1600   -3.3680   23.0630 H   0  0  0  0  0  0  0  0  0  0  0  0
    8.7730   -3.1830   21.3330 H   0  0  0  0  0  0  0  0  0  0  0  0
    8.4050   -1.0660   23.4640 H   0  0  0  0  0  0  0  0  0  0  0  0
    7.8800    0.4330   21.7190 H   0  0  0  0  0  0  0  0  0  0  0  0
    8.4580   -0.7880   20.5910 H   0  0  0  0  0  0  0  0  0  0  0  0
    5.9700   -1.4230   24.2200 C   0  0  0  0  0  0  0  0  0  0  0  0
    6.2610   -0.0800   24.4930 C   0  0  0  0  0  0  0  0  0  0  0  0
    5.6910    0.5490   25.5860 C   0  0  0  0  0  0  0  0  0  0  0  0
    6.0770    2.2150   25.9150 Cl  0  0  0  0  0  0  0  0  0  0  0  0
    4.8070   -0.1180   26.4310 C   0  0  0  0  0  0  0  0  0  0  0  0
    4.4770   -1.4270   26.1390 C   0  0  0  0  0  0  0  0  0  0  0  0
    5.0340   -2.0770   25.0360 C   0  0  0  0  0  0  0  0  0  0  0  0
    4.5400   -3.4590   24.6980 C   0  0  0  0  0  0  0  0  0  0  0  0
    3.5940   -3.9750   25.2860 O   0  0  0  0  0  0  0  0  0  0  0  0
    3.7630   -1.9730   26.7460 H   0  0  0  0  0  0  0  0  0  0  0  0
    4.3790    0.4020   27.2810 H   0  0  0  0  0  0  0  0  0  0  0  0
    6.9180    0.5050   23.8570 H   0  0  0  0  0  0  0  0  0  0  0  0
    7.2400   -3.8920   24.0010 H   0  0  0  0  0  0  0  0  0  0  0  0
    6.7290   -4.1730   22.3080 H   0  0  0  0  0  0  0  0  0  0  0  0
    3.4500   -4.9240   22.8920 H   0  0  0  0  0  0  0  0  0  0  0  0
    4.9370   -5.2760   22.0040 H   0  0  0  0  0  0  0  0  0  0  0  0
    4.1670   -6.4140   24.7460 H   0  0  0  0  0  0  0  0  0  0  0  0
    4.0070   -7.2820   23.2180 H   0  0  0  0  0  0  0  0  0  0  0  0
    6.4070   -7.0520   22.8920 H   0  0  0  0  0  0  0  0  0  0  0  0
    6.5190   -6.2800   24.4160 H   0  0  0  0  0  0  0  0  0  0  0  0
    5.5790   -9.0540   23.9100 H   0  0  0  0  0  0  0  0  0  0  0  0
    7.1700   -8.5990   24.5580 H   0  0  0  0  0  0  0  0  0  0  0  0
    5.6860   -8.2860   25.4900 H   0  0  0  0  0  0  0  0  0  0  0  0
  1  2  1  0  0  0  0
  1 65  1  0  0  0  0
  1 66  1  0  0  0  0
  1 67  1  0  0  0  0
  2  3  1  0  0  0  0
  2 63  1  0  0  0  0
  2 64  1  0  0  0  0
  3  4  1  0  0  0  0
  3 61  1  0  0  0  0
  3 62  1  0  0  0  0
  4  5  1  0  0  0  0
  4 59  1  0  0  0  0
  4 60  1  0  0  0  0
  5  6  1  0  0  0  0
  5 52  1  0  0  0  0
  6  7  1  0  0  0  0
  6 57  1  0  0  0  0
  6 58  1  0  0  0  0
  7  8  1  6  0  0  0
  7 28  1  0  0  0  0
  7 45  1  0  0  0  0
  8  9  2  0  0  0  0
  8 10  1  0  0  0  0
 10 11  1  0  0  0  0
 10 27  1  0  0  0  0
 11 12  2  0  0  0  0
 11 20  1  0  0  0  0
 12 13  1  0  0  0  0
 12 26  1  0  0  0  0
 13 14  2  0  0  0  0
 14 15  1  0  0  0  0
 14 25  1  0  0  0  0
 15 16  2  0  0  0  0
 15 20  1  0  0  0  0
 16 17  1  0  0  0  0
 16 24  1  0  0  0  0
 17 18  2  0  0  0  0
 17 23  1  0  0  0  0
 18 19  1  0  0  0  0
 18 22  1  0  0  0  0
 19 20  2  0  0  0  0
 19 21  1  0  0  0  0
 27 28  1  0  0  0  0
 27 43  1  0  0  0  0
 27 44  1  0  0  0  0
 28 29  1  0  0  0  0
 28 42  1  1  0  0  0
 29 30  1  0  0  0  0
 29 40  1  0  0  0  0
 29 41  1  0  0  0  0
 30 31  1  0  0  0  0
 30 39  1  0  0  0  0
 31 32  2  0  0  0  0
 31 36  1  0  0  0  0
 32 33  1  0  0  0  0
 33 34  2  0  0  0  0
 33 38  1  0  0  0  0
 34 35  1  0  0  0  0
 35 36  2  0  0  0  0
 35 37  1  0  0  0  0
 45 46  2  0  0  0  0
 45 51  1  0  0  0  0
 46 47  1  0  0  0  0
 46 56  1  0  0  0  0
 47 48  1  0  0  0  0
 47 49  2  0  0  0  0
 49 50  1  0  0  0  0
 49 55  1  0  0  0  0
 50 51  2  0  0  0  0
 50 54  1  0  0  0  0
 51 52  1  0  0  0  0
 52 53  2  0  0  0  0
M  CHG  1   2   1
M  END
>  <MODEL>
       2

$$$$
