best_conformers_54.pdb
 OpenBabel01292518153D

 40 43  0  0  0  0  0  0  0  0999 V2000
   -8.1250   -5.0470  -22.2100 C   0  0  0  0  0  0  0  0  0  0  0  0
   -7.5680   -3.7320  -21.9850 N   0  0  0  0  0  0  0  0  0  0  0  0
   -7.8800   -2.5900  -22.6640 C   0  0  0  0  0  0  0  0  0  0  0  0
   -8.7200   -2.5450  -23.8990 C   0  0  0  0  0  0  0  0  0  0  0  0
  -10.2010   -2.5140  -23.5630 C   0  0  0  0  0  0  0  0  0  0  0  0
  -10.7570   -1.3570  -23.0200 C   0  0  0  0  0  0  0  0  0  0  0  0
  -12.1030   -1.3160  -22.6660 C   0  0  0  0  0  0  0  0  0  0  0  0
  -12.9090   -2.4380  -22.8440 C   0  0  0  0  0  0  0  0  0  0  0  0
  -12.3600   -3.6020  -23.3780 C   0  0  0  0  0  0  0  0  0  0  0  0
  -11.0130   -3.6330  -23.7350 C   0  0  0  0  0  0  0  0  0  0  0  0
  -10.5810   -4.5470  -24.1430 H   0  0  0  0  0  0  0  0  0  0  0  0
  -12.9810   -4.4820  -23.5290 H   0  0  0  0  0  0  0  0  0  0  0  0
  -13.9610   -2.4020  -22.5710 H   0  0  0  0  0  0  0  0  0  0  0  0
  -12.5230   -0.4030  -22.2490 H   0  0  0  0  0  0  0  0  0  0  0  0
  -10.1140   -0.4910  -22.8700 H   0  0  0  0  0  0  0  0  0  0  0  0
   -8.4310   -1.6380  -24.4380 H   0  0  0  0  0  0  0  0  0  0  0  0
   -8.5110   -3.3860  -24.5730 H   0  0  0  0  0  0  0  0  0  0  0  0
   -7.3970   -1.5310  -22.0860 N   0  0  0  0  0  0  0  0  0  0  0  0
   -6.7550   -1.9990  -20.9750 N   0  0  0  0  0  0  0  0  0  0  0  0
   -6.1670   -1.1670  -20.0030 C   0  0  0  0  0  0  0  0  0  0  0  0
   -6.5380   -1.2830  -18.6860 C   0  0  0  0  0  0  0  0  0  0  0  0
   -6.0320   -0.5190  -17.6930 N   0  0  0  0  0  0  0  0  0  0  0  0
   -5.1120    0.3550  -18.0270 C   0  0  0  0  0  0  0  0  0  0  0  0
   -4.6110    0.5420  -19.3430 C   0  0  0  0  0  0  0  0  0  0  0  0
   -3.6100    1.5020  -19.6350 C   0  0  0  0  0  0  0  0  0  0  0  0
   -3.1410    1.6440  -20.9090 C   0  0  0  0  0  0  0  0  0  0  0  0
   -3.6420    0.8230  -21.9470 C   0  0  0  0  0  0  0  0  0  0  0  0
   -4.6140   -0.1110  -21.6960 C   0  0  0  0  0  0  0  0  0  0  0  0
   -5.1440   -0.2510  -20.3820 C   0  0  0  0  0  0  0  0  0  0  0  0
   -5.0200   -0.7290  -22.4920 H   0  0  0  0  0  0  0  0  0  0  0  0
   -3.2700    0.9560  -22.9590 H   0  0  0  0  0  0  0  0  0  0  0  0
   -2.3870    2.3940  -21.1340 H   0  0  0  0  0  0  0  0  0  0  0  0
   -3.2430    2.1200  -18.8200 H   0  0  0  0  0  0  0  0  0  0  0  0
   -4.7110    0.9640  -17.2200 H   0  0  0  0  0  0  0  0  0  0  0  0
   -7.2750   -2.0210  -18.3770 H   0  0  0  0  0  0  0  0  0  0  0  0
   -6.7310   -3.3790  -20.9290 C   0  0  0  0  0  0  0  0  0  0  0  0
   -6.1020   -4.0830  -20.1680 O   0  0  0  0  0  0  0  0  0  0  0  0
   -8.0910   -5.2940  -23.2760 H   0  0  0  0  0  0  0  0  0  0  0  0
   -9.1610   -5.0680  -21.8670 H   0  0  0  0  0  0  0  0  0  0  0  0
   -7.5200   -5.7560  -21.6460 H   0  0  0  0  0  0  0  0  0  0  0  0
  1  2  1  0  0  0  0
  1 38  1  0  0  0  0
  1 39  1  0  0  0  0
  1 40  1  0  0  0  0
  2  3  1  0  0  0  0
  2 36  1  0  0  0  0
  3  4  1  0  0  0  0
  3 18  2  0  0  0  0
  4  5  1  0  0  0  0
  4 16  1  0  0  0  0
  4 17  1  0  0  0  0
  5  6  2  0  0  0  0
  5 10  1  0  0  0  0
  6  7  1  0  0  0  0
  6 15  1  0  0  0  0
  7  8  2  0  0  0  0
  7 14  1  0  0  0  0
  8  9  1  0  0  0  0
  8 13  1  0  0  0  0
  9 10  2  0  0  0  0
  9 12  1  0  0  0  0
 10 11  1  0  0  0  0
 18 19  1  0  0  0  0
 19 20  1  0  0  0  0
 19 36  1  0  0  0  0
 20 21  2  0  0  0  0
 20 29  1  0  0  0  0
 21 22  1  0  0  0  0
 21 35  1  0  0  0  0
 22 23  2  0  0  0  0
 23 24  1  0  0  0  0
 23 34  1  0  0  0  0
 24 25  2  0  0  0  0
 24 29  1  0  0  0  0
 25 26  1  0  0  0  0
 25 33  1  0  0  0  0
 26 27  2  0  0  0  0
 26 32  1  0  0  0  0
 27 28  1  0  0  0  0
 27 31  1  0  0  0  0
 28 29  2  0  0  0  0
 28 30  1  0  0  0  0
 36 37  2  0  0  0  0
M  END
>  <MODEL>
       1

$$$$
best_conformers_54.pdb
 OpenBabel01292518153D

 40 43  0  0  0  0  0  0  0  0999 V2000
   -8.1260   -5.0470  -22.2100 C   0  0  0  0  0  0  0  0  0  0  0  0
   -7.5680   -3.7310  -21.9860 N   0  0  0  0  0  0  0  0  0  0  0  0
   -7.8800   -2.5900  -22.6640 C   0  0  0  0  0  0  0  0  0  0  0  0
   -8.7210   -2.5450  -23.8990 C   0  0  0  0  0  0  0  0  0  0  0  0
  -10.2010   -2.5140  -23.5630 C   0  0  0  0  0  0  0  0  0  0  0  0
  -11.0130   -3.6330  -23.7350 C   0  0  0  0  0  0  0  0  0  0  0  0
  -12.3600   -3.6010  -23.3780 C   0  0  0  0  0  0  0  0  0  0  0  0
  -12.9090   -2.4380  -22.8440 C   0  0  0  0  0  0  0  0  0  0  0  0
  -12.1030   -1.3160  -22.6660 C   0  0  0  0  0  0  0  0  0  0  0  0
  -10.7570   -1.3560  -23.0200 C   0  0  0  0  0  0  0  0  0  0  0  0
  -10.1140   -0.4910  -22.8700 H   0  0  0  0  0  0  0  0  0  0  0  0
  -12.5230   -0.4030  -22.2490 H   0  0  0  0  0  0  0  0  0  0  0  0
  -13.9610   -2.4020  -22.5710 H   0  0  0  0  0  0  0  0  0  0  0  0
  -12.9810   -4.4810  -23.5300 H   0  0  0  0  0  0  0  0  0  0  0  0
  -10.5810   -4.5460  -24.1440 H   0  0  0  0  0  0  0  0  0  0  0  0
   -8.4310   -1.6370  -24.4380 H   0  0  0  0  0  0  0  0  0  0  0  0
   -8.5110   -3.3860  -24.5740 H   0  0  0  0  0  0  0  0  0  0  0  0
   -7.3970   -1.5310  -22.0860 N   0  0  0  0  0  0  0  0  0  0  0  0
   -6.7550   -1.9990  -20.9750 N   0  0  0  0  0  0  0  0  0  0  0  0
   -6.1670   -1.1660  -20.0030 C   0  0  0  0  0  0  0  0  0  0  0  0
   -6.5380   -1.2830  -18.6860 C   0  0  0  0  0  0  0  0  0  0  0  0
   -6.0320   -0.5190  -17.6930 N   0  0  0  0  0  0  0  0  0  0  0  0
   -5.1120    0.3550  -18.0270 C   0  0  0  0  0  0  0  0  0  0  0  0
   -4.6110    0.5420  -19.3430 C   0  0  0  0  0  0  0  0  0  0  0  0
   -3.6100    1.5020  -19.6350 C   0  0  0  0  0  0  0  0  0  0  0  0
   -3.1410    1.6440  -20.9090 C   0  0  0  0  0  0  0  0  0  0  0  0
   -3.6420    0.8230  -21.9470 C   0  0  0  0  0  0  0  0  0  0  0  0
   -4.6140   -0.1110  -21.6960 C   0  0  0  0  0  0  0  0  0  0  0  0
   -5.1440   -0.2510  -20.3820 C   0  0  0  0  0  0  0  0  0  0  0  0
   -5.0200   -0.7290  -22.4920 H   0  0  0  0  0  0  0  0  0  0  0  0
   -3.2700    0.9560  -22.9590 H   0  0  0  0  0  0  0  0  0  0  0  0
   -2.3870    2.3940  -21.1340 H   0  0  0  0  0  0  0  0  0  0  0  0
   -3.2430    2.1200  -18.8200 H   0  0  0  0  0  0  0  0  0  0  0  0
   -4.7110    0.9640  -17.2200 H   0  0  0  0  0  0  0  0  0  0  0  0
   -7.2750   -2.0210  -18.3770 H   0  0  0  0  0  0  0  0  0  0  0  0
   -6.7310   -3.3790  -20.9290 C   0  0  0  0  0  0  0  0  0  0  0  0
   -6.1020   -4.0830  -20.1680 O   0  0  0  0  0  0  0  0  0  0  0  0
   -7.5210   -5.7550  -21.6460 H   0  0  0  0  0  0  0  0  0  0  0  0
   -9.1610   -5.0680  -21.8670 H   0  0  0  0  0  0  0  0  0  0  0  0
   -8.0910   -5.2940  -23.2760 H   0  0  0  0  0  0  0  0  0  0  0  0
  1  2  1  0  0  0  0
  1 38  1  0  0  0  0
  1 39  1  0  0  0  0
  1 40  1  0  0  0  0
  2  3  1  0  0  0  0
  2 36  1  0  0  0  0
  3  4  1  0  0  0  0
  3 18  2  0  0  0  0
  4  5  1  0  0  0  0
  4 16  1  0  0  0  0
  4 17  1  0  0  0  0
  5  6  2  0  0  0  0
  5 10  1  0  0  0  0
  6  7  1  0  0  0  0
  6 15  1  0  0  0  0
  7  8  2  0  0  0  0
  7 14  1  0  0  0  0
  8  9  1  0  0  0  0
  8 13  1  0  0  0  0
  9 10  2  0  0  0  0
  9 12  1  0  0  0  0
 10 11  1  0  0  0  0
 18 19  1  0  0  0  0
 19 20  1  0  0  0  0
 19 36  1  0  0  0  0
 20 21  2  0  0  0  0
 20 29  1  0  0  0  0
 21 22  1  0  0  0  0
 21 35  1  0  0  0  0
 22 23  2  0  0  0  0
 23 24  1  0  0  0  0
 23 34  1  0  0  0  0
 24 25  2  0  0  0  0
 24 29  1  0  0  0  0
 25 26  1  0  0  0  0
 25 33  1  0  0  0  0
 26 27  2  0  0  0  0
 26 32  1  0  0  0  0
 27 28  1  0  0  0  0
 27 31  1  0  0  0  0
 28 29  2  0  0  0  0
 28 30  1  0  0  0  0
 36 37  2  0  0  0  0
M  END
>  <MODEL>
       2

$$$$
best_conformers_54.pdb
 OpenBabel01292518153D

 40 43  0  0  0  0  0  0  0  0999 V2000
   -9.3960   -3.6830  -22.7710 C   0  0  0  0  0  0  0  0  0  0  0  0
   -8.1380   -3.2660  -22.1480 N   0  0  0  0  0  0  0  0  0  0  0  0
   -6.8450   -3.5600  -22.5040 C   0  0  0  0  0  0  0  0  0  0  0  0
   -6.4900   -4.4360  -23.6550 C   0  0  0  0  0  0  0  0  0  0  0  0
   -6.5190   -3.6440  -24.9480 C   0  0  0  0  0  0  0  0  0  0  0  0
   -5.5030   -2.7250  -25.2220 C   0  0  0  0  0  0  0  0  0  0  0  0
   -5.5320   -1.9700  -26.3900 C   0  0  0  0  0  0  0  0  0  0  0  0
   -6.5820   -2.1200  -27.2910 C   0  0  0  0  0  0  0  0  0  0  0  0
   -7.6030   -3.0260  -27.0210 C   0  0  0  0  0  0  0  0  0  0  0  0
   -7.5710   -3.7810  -25.8510 C   0  0  0  0  0  0  0  0  0  0  0  0
   -8.3780   -4.4850  -25.6460 H   0  0  0  0  0  0  0  0  0  0  0  0
   -8.4250   -3.1450  -27.7220 H   0  0  0  0  0  0  0  0  0  0  0  0
   -6.6060   -1.5300  -28.2030 H   0  0  0  0  0  0  0  0  0  0  0  0
   -4.7350   -1.2590  -26.5990 H   0  0  0  0  0  0  0  0  0  0  0  0
   -4.6790   -2.5980  -24.5180 H   0  0  0  0  0  0  0  0  0  0  0  0
   -5.4840   -4.8220  -23.4760 H   0  0  0  0  0  0  0  0  0  0  0  0
   -7.1630   -5.2990  -23.7150 H   0  0  0  0  0  0  0  0  0  0  0  0
   -5.9680   -2.8850  -21.8200 N   0  0  0  0  0  0  0  0  0  0  0  0
   -6.7040   -2.1090  -20.9590 N   0  0  0  0  0  0  0  0  0  0  0  0
   -6.1310   -1.2220  -19.9920 C   0  0  0  0  0  0  0  0  0  0  0  0
   -6.5180   -1.2850  -18.6750 C   0  0  0  0  0  0  0  0  0  0  0  0
   -6.0120   -0.5110  -17.6770 N   0  0  0  0  0  0  0  0  0  0  0  0
   -5.0930    0.3690  -18.0040 C   0  0  0  0  0  0  0  0  0  0  0  0
   -4.6040    0.5560  -19.3260 C   0  0  0  0  0  0  0  0  0  0  0  0
   -3.6100    1.5290  -19.6330 C   0  0  0  0  0  0  0  0  0  0  0  0
   -3.1850    1.6960  -20.9200 C   0  0  0  0  0  0  0  0  0  0  0  0
   -3.7340    0.9120  -21.9600 C   0  0  0  0  0  0  0  0  0  0  0  0
   -4.6920   -0.0290  -21.6930 C   0  0  0  0  0  0  0  0  0  0  0  0
   -5.1430   -0.2530  -20.3640 C   0  0  0  0  0  0  0  0  0  0  0  0
   -5.1260   -0.6150  -22.4970 H   0  0  0  0  0  0  0  0  0  0  0  0
   -3.3990    1.0640  -22.9800 H   0  0  0  0  0  0  0  0  0  0  0  0
   -2.4310    2.4390  -21.1620 H   0  0  0  0  0  0  0  0  0  0  0  0
   -3.2020    2.1420  -18.8310 H   0  0  0  0  0  0  0  0  0  0  0  0
   -4.6830    0.9950  -17.2060 H   0  0  0  0  0  0  0  0  0  0  0  0
   -7.2680   -2.0130  -18.3770 H   0  0  0  0  0  0  0  0  0  0  0  0
   -8.0660   -2.3030  -21.1440 C   0  0  0  0  0  0  0  0  0  0  0  0
   -8.9750   -1.7450  -20.5710 O   0  0  0  0  0  0  0  0  0  0  0  0
   -9.3620   -4.7460  -23.0280 H   0  0  0  0  0  0  0  0  0  0  0  0
   -9.5930   -3.1000  -23.6780 H   0  0  0  0  0  0  0  0  0  0  0  0
  -10.2290   -3.5310  -22.0780 H   0  0  0  0  0  0  0  0  0  0  0  0
  1  2  1  0  0  0  0
  1 38  1  0  0  0  0
  1 39  1  0  0  0  0
  1 40  1  0  0  0  0
  2  3  1  0  0  0  0
  2 36  1  0  0  0  0
  3  4  1  0  0  0  0
  3 18  2  0  0  0  0
  4  5  1  0  0  0  0
  4 16  1  0  0  0  0
  4 17  1  0  0  0  0
  5  6  2  0  0  0  0
  5 10  1  0  0  0  0
  6  7  1  0  0  0  0
  6 15  1  0  0  0  0
  7  8  2  0  0  0  0
  7 14  1  0  0  0  0
  8  9  1  0  0  0  0
  8 13  1  0  0  0  0
  9 10  2  0  0  0  0
  9 12  1  0  0  0  0
 10 11  1  0  0  0  0
 18 19  1  0  0  0  0
 19 20  1  0  0  0  0
 19 36  1  0  0  0  0
 20 21  2  0  0  0  0
 20 29  1  0  0  0  0
 21 22  1  0  0  0  0
 21 35  1  0  0  0  0
 22 23  2  0  0  0  0
 23 24  1  0  0  0  0
 23 34  1  0  0  0  0
 24 25  2  0  0  0  0
 24 29  1  0  0  0  0
 25 26  1  0  0  0  0
 25 33  1  0  0  0  0
 26 27  2  0  0  0  0
 26 32  1  0  0  0  0
 27 28  1  0  0  0  0
 27 31  1  0  0  0  0
 28 29  2  0  0  0  0
 28 30  1  0  0  0  0
 36 37  2  0  0  0  0
M  END
>  <MODEL>
       3

$$$$
best_conformers_54.pdb
 OpenBabel01292518153D

 40 43  0  0  0  0  0  0  0  0999 V2000
   -9.3970   -3.6830  -22.7710 C   0  0  0  0  0  0  0  0  0  0  0  0
   -8.1390   -3.2650  -22.1480 N   0  0  0  0  0  0  0  0  0  0  0  0
   -6.8460   -3.5600  -22.5040 C   0  0  0  0  0  0  0  0  0  0  0  0
   -6.4910   -4.4350  -23.6560 C   0  0  0  0  0  0  0  0  0  0  0  0
   -6.5220   -3.6430  -24.9480 C   0  0  0  0  0  0  0  0  0  0  0  0
   -7.5740   -3.7810  -25.8520 C   0  0  0  0  0  0  0  0  0  0  0  0
   -7.6080   -3.0260  -27.0210 C   0  0  0  0  0  0  0  0  0  0  0  0
   -6.5880   -2.1190  -27.2920 C   0  0  0  0  0  0  0  0  0  0  0  0
   -5.5370   -1.9680  -26.3910 C   0  0  0  0  0  0  0  0  0  0  0  0
   -5.5070   -2.7230  -25.2240 C   0  0  0  0  0  0  0  0  0  0  0  0
   -4.6830   -2.5950  -24.5200 H   0  0  0  0  0  0  0  0  0  0  0  0
   -4.7420   -1.2560  -26.6010 H   0  0  0  0  0  0  0  0  0  0  0  0
   -6.6130   -1.5290  -28.2040 H   0  0  0  0  0  0  0  0  0  0  0  0
   -8.4300   -3.1460  -27.7220 H   0  0  0  0  0  0  0  0  0  0  0  0
   -8.3800   -4.4860  -25.6450 H   0  0  0  0  0  0  0  0  0  0  0  0
   -5.4850   -4.8200  -23.4780 H   0  0  0  0  0  0  0  0  0  0  0  0
   -7.1630   -5.2990  -23.7160 H   0  0  0  0  0  0  0  0  0  0  0  0
   -5.9680   -2.8850  -21.8200 N   0  0  0  0  0  0  0  0  0  0  0  0
   -6.7040   -2.1080  -20.9590 N   0  0  0  0  0  0  0  0  0  0  0  0
   -6.1310   -1.2220  -19.9920 C   0  0  0  0  0  0  0  0  0  0  0  0
   -6.5180   -1.2850  -18.6750 C   0  0  0  0  0  0  0  0  0  0  0  0
   -6.0120   -0.5110  -17.6770 N   0  0  0  0  0  0  0  0  0  0  0  0
   -5.0930    0.3690  -18.0040 C   0  0  0  0  0  0  0  0  0  0  0  0
   -4.6040    0.5560  -19.3260 C   0  0  0  0  0  0  0  0  0  0  0  0
   -3.6100    1.5290  -19.6330 C   0  0  0  0  0  0  0  0  0  0  0  0
   -3.1850    1.6960  -20.9200 C   0  0  0  0  0  0  0  0  0  0  0  0
   -3.7340    0.9120  -21.9600 C   0  0  0  0  0  0  0  0  0  0  0  0
   -4.6920   -0.0280  -21.6930 C   0  0  0  0  0  0  0  0  0  0  0  0
   -5.1430   -0.2530  -20.3640 C   0  0  0  0  0  0  0  0  0  0  0  0
   -5.1260   -0.6150  -22.4970 H   0  0  0  0  0  0  0  0  0  0  0  0
   -3.3990    1.0640  -22.9800 H   0  0  0  0  0  0  0  0  0  0  0  0
   -2.4310    2.4390  -21.1620 H   0  0  0  0  0  0  0  0  0  0  0  0
   -3.2020    2.1420  -18.8310 H   0  0  0  0  0  0  0  0  0  0  0  0
   -4.6830    0.9950  -17.2060 H   0  0  0  0  0  0  0  0  0  0  0  0
   -7.2680   -2.0130  -18.3770 H   0  0  0  0  0  0  0  0  0  0  0  0
   -8.0660   -2.3030  -21.1440 C   0  0  0  0  0  0  0  0  0  0  0  0
   -8.9750   -1.7460  -20.5700 O   0  0  0  0  0  0  0  0  0  0  0  0
   -9.5940   -3.0990  -23.6770 H   0  0  0  0  0  0  0  0  0  0  0  0
   -9.3620   -4.7460  -23.0280 H   0  0  0  0  0  0  0  0  0  0  0  0
  -10.2290   -3.5320  -22.0770 H   0  0  0  0  0  0  0  0  0  0  0  0
  1  2  1  0  0  0  0
  1 38  1  0  0  0  0
  1 39  1  0  0  0  0
  1 40  1  0  0  0  0
  2  3  1  0  0  0  0
  2 36  1  0  0  0  0
  3  4  1  0  0  0  0
  3 18  2  0  0  0  0
  4  5  1  0  0  0  0
  4 16  1  0  0  0  0
  4 17  1  0  0  0  0
  5  6  2  0  0  0  0
  5 10  1  0  0  0  0
  6  7  1  0  0  0  0
  6 15  1  0  0  0  0
  7  8  2  0  0  0  0
  7 14  1  0  0  0  0
  8  9  1  0  0  0  0
  8 13  1  0  0  0  0
  9 10  2  0  0  0  0
  9 12  1  0  0  0  0
 10 11  1  0  0  0  0
 18 19  1  0  0  0  0
 19 20  1  0  0  0  0
 19 36  1  0  0  0  0
 20 21  2  0  0  0  0
 20 29  1  0  0  0  0
 21 22  1  0  0  0  0
 21 35  1  0  0  0  0
 22 23  2  0  0  0  0
 23 24  1  0  0  0  0
 23 34  1  0  0  0  0
 24 25  2  0  0  0  0
 24 29  1  0  0  0  0
 25 26  1  0  0  0  0
 25 33  1  0  0  0  0
 26 27  2  0  0  0  0
 26 32  1  0  0  0  0
 27 28  1  0  0  0  0
 27 31  1  0  0  0  0
 28 29  2  0  0  0  0
 28 30  1  0  0  0  0
 36 37  2  0  0  0  0
M  END
>  <MODEL>
       4

$$$$
best_conformers_54.pdb
 OpenBabel01292518153D

 40 43  0  0  0  0  0  0  0  0999 V2000
   -7.8070   -5.1400  -22.4000 C   0  0  0  0  0  0  0  0  0  0  0  0
   -7.5330   -3.7690  -22.0080 N   0  0  0  0  0  0  0  0  0  0  0  0
   -7.8140   -2.6270  -22.7050 C   0  0  0  0  0  0  0  0  0  0  0  0
   -8.3970   -2.6030  -24.0780 C   0  0  0  0  0  0  0  0  0  0  0  0
   -7.3340   -2.8690  -25.1310 C   0  0  0  0  0  0  0  0  0  0  0  0
   -6.3970   -1.8820  -25.4320 C   0  0  0  0  0  0  0  0  0  0  0  0
   -5.3850   -2.1170  -26.3590 C   0  0  0  0  0  0  0  0  0  0  0  0
   -5.2960   -3.3520  -26.9990 C   0  0  0  0  0  0  0  0  0  0  0  0
   -6.2240   -4.3470  -26.7030 C   0  0  0  0  0  0  0  0  0  0  0  0
   -7.2350   -4.1030  -25.7720 C   0  0  0  0  0  0  0  0  0  0  0  0
   -7.9540   -4.8850  -25.5330 H   0  0  0  0  0  0  0  0  0  0  0  0
   -6.1640   -5.3130  -27.1980 H   0  0  0  0  0  0  0  0  0  0  0  0
   -4.5070   -3.5340  -27.7240 H   0  0  0  0  0  0  0  0  0  0  0  0
   -4.6640   -1.3340  -26.5860 H   0  0  0  0  0  0  0  0  0  0  0  0
   -6.4700   -0.9230  -24.9220 H   0  0  0  0  0  0  0  0  0  0  0  0
   -9.2140   -3.3280  -24.1840 H   0  0  0  0  0  0  0  0  0  0  0  0
   -8.8350   -1.6110  -24.2250 H   0  0  0  0  0  0  0  0  0  0  0  0
   -7.3660   -1.5650  -22.1020 N   0  0  0  0  0  0  0  0  0  0  0  0
   -6.7680   -2.0260  -20.9650 N   0  0  0  0  0  0  0  0  0  0  0  0
   -6.1660   -1.1830  -20.0010 C   0  0  0  0  0  0  0  0  0  0  0  0
   -6.5390   -1.2870  -18.6840 C   0  0  0  0  0  0  0  0  0  0  0  0
   -6.0330   -0.5180  -17.6940 N   0  0  0  0  0  0  0  0  0  0  0  0
   -5.1120    0.3550  -18.0250 C   0  0  0  0  0  0  0  0  0  0  0  0
   -4.6130    0.5400  -19.3430 C   0  0  0  0  0  0  0  0  0  0  0  0
   -3.6110    1.5010  -19.6340 C   0  0  0  0  0  0  0  0  0  0  0  0
   -3.1370    1.6450  -20.9080 C   0  0  0  0  0  0  0  0  0  0  0  0
   -3.6390    0.8190  -21.9460 C   0  0  0  0  0  0  0  0  0  0  0  0
   -4.6100   -0.1150  -21.6890 C   0  0  0  0  0  0  0  0  0  0  0  0
   -5.1450   -0.2600  -20.3790 C   0  0  0  0  0  0  0  0  0  0  0  0
   -5.0090   -0.7420  -22.4810 H   0  0  0  0  0  0  0  0  0  0  0  0
   -3.2630    0.9500  -22.9540 H   0  0  0  0  0  0  0  0  0  0  0  0
   -2.3830    2.3920  -21.1330 H   0  0  0  0  0  0  0  0  0  0  0  0
   -3.2430    2.1200  -18.8210 H   0  0  0  0  0  0  0  0  0  0  0  0
   -4.7110    0.9660  -17.2200 H   0  0  0  0  0  0  0  0  0  0  0  0
   -7.2760   -2.0220  -18.3730 H   0  0  0  0  0  0  0  0  0  0  0  0
   -6.7340   -3.4040  -20.9240 C   0  0  0  0  0  0  0  0  0  0  0  0
   -6.1160   -4.1030  -20.1490 O   0  0  0  0  0  0  0  0  0  0  0  0
   -7.7920   -5.7470  -21.4960 H   0  0  0  0  0  0  0  0  0  0  0  0
   -8.7940   -5.2130  -22.8710 H   0  0  0  0  0  0  0  0  0  0  0  0
   -7.0430   -5.5050  -23.0930 H   0  0  0  0  0  0  0  0  0  0  0  0
  1  2  1  0  0  0  0
  1 38  1  0  0  0  0
  1 39  1  0  0  0  0
  1 40  1  0  0  0  0
  2  3  1  0  0  0  0
  2 36  1  0  0  0  0
  3  4  1  0  0  0  0
  3 18  2  0  0  0  0
  4  5  1  0  0  0  0
  4 16  1  0  0  0  0
  4 17  1  0  0  0  0
  5  6  2  0  0  0  0
  5 10  1  0  0  0  0
  6  7  1  0  0  0  0
  6 15  1  0  0  0  0
  7  8  2  0  0  0  0
  7 14  1  0  0  0  0
  8  9  1  0  0  0  0
  8 13  1  0  0  0  0
  9 10  2  0  0  0  0
  9 12  1  0  0  0  0
 10 11  1  0  0  0  0
 18 19  1  0  0  0  0
 19 20  1  0  0  0  0
 19 36  1  0  0  0  0
 20 21  2  0  0  0  0
 20 29  1  0  0  0  0
 21 22  1  0  0  0  0
 21 35  1  0  0  0  0
 22 23  2  0  0  0  0
 23 24  1  0  0  0  0
 23 34  1  0  0  0  0
 24 25  2  0  0  0  0
 24 29  1  0  0  0  0
 25 26  1  0  0  0  0
 25 33  1  0  0  0  0
 26 27  2  0  0  0  0
 26 32  1  0  0  0  0
 27 28  1  0  0  0  0
 27 31  1  0  0  0  0
 28 29  2  0  0  0  0
 28 30  1  0  0  0  0
 36 37  2  0  0  0  0
M  END
>  <MODEL>
       5

$$$$
best_conformers_54.pdb
 OpenBabel01292518153D

 40 43  0  0  0  0  0  0  0  0999 V2000
   -7.8070   -5.1400  -22.4000 C   0  0  0  0  0  0  0  0  0  0  0  0
   -7.5330   -3.7690  -22.0080 N   0  0  0  0  0  0  0  0  0  0  0  0
   -7.8140   -2.6270  -22.7050 C   0  0  0  0  0  0  0  0  0  0  0  0
   -8.3980   -2.6030  -24.0780 C   0  0  0  0  0  0  0  0  0  0  0  0
   -7.3340   -2.8690  -25.1310 C   0  0  0  0  0  0  0  0  0  0  0  0
   -7.2350   -4.1030  -25.7720 C   0  0  0  0  0  0  0  0  0  0  0  0
   -6.2250   -4.3470  -26.7030 C   0  0  0  0  0  0  0  0  0  0  0  0
   -5.2960   -3.3520  -26.9990 C   0  0  0  0  0  0  0  0  0  0  0  0
   -5.3850   -2.1170  -26.3590 C   0  0  0  0  0  0  0  0  0  0  0  0
   -6.3970   -1.8820  -25.4320 C   0  0  0  0  0  0  0  0  0  0  0  0
   -6.4700   -0.9230  -24.9220 H   0  0  0  0  0  0  0  0  0  0  0  0
   -4.6650   -1.3340  -26.5860 H   0  0  0  0  0  0  0  0  0  0  0  0
   -4.5080   -3.5340  -27.7250 H   0  0  0  0  0  0  0  0  0  0  0  0
   -6.1640   -5.3130  -27.1980 H   0  0  0  0  0  0  0  0  0  0  0  0
   -7.9540   -4.8850  -25.5330 H   0  0  0  0  0  0  0  0  0  0  0  0
   -8.8350   -1.6110  -24.2250 H   0  0  0  0  0  0  0  0  0  0  0  0
   -9.2150   -3.3280  -24.1840 H   0  0  0  0  0  0  0  0  0  0  0  0
   -7.3660   -1.5650  -22.1020 N   0  0  0  0  0  0  0  0  0  0  0  0
   -6.7680   -2.0260  -20.9650 N   0  0  0  0  0  0  0  0  0  0  0  0
   -6.1660   -1.1830  -20.0010 C   0  0  0  0  0  0  0  0  0  0  0  0
   -6.5390   -1.2870  -18.6840 C   0  0  0  0  0  0  0  0  0  0  0  0
   -6.0330   -0.5180  -17.6940 N   0  0  0  0  0  0  0  0  0  0  0  0
   -5.1120    0.3550  -18.0250 C   0  0  0  0  0  0  0  0  0  0  0  0
   -4.6130    0.5400  -19.3430 C   0  0  0  0  0  0  0  0  0  0  0  0
   -3.6110    1.5010  -19.6340 C   0  0  0  0  0  0  0  0  0  0  0  0
   -3.1370    1.6450  -20.9080 C   0  0  0  0  0  0  0  0  0  0  0  0
   -3.6390    0.8190  -21.9460 C   0  0  0  0  0  0  0  0  0  0  0  0
   -4.6100   -0.1150  -21.6890 C   0  0  0  0  0  0  0  0  0  0  0  0
   -5.1450   -0.2600  -20.3790 C   0  0  0  0  0  0  0  0  0  0  0  0
   -5.0090   -0.7420  -22.4810 H   0  0  0  0  0  0  0  0  0  0  0  0
   -3.2630    0.9500  -22.9540 H   0  0  0  0  0  0  0  0  0  0  0  0
   -2.3830    2.3920  -21.1330 H   0  0  0  0  0  0  0  0  0  0  0  0
   -3.2430    2.1200  -18.8210 H   0  0  0  0  0  0  0  0  0  0  0  0
   -4.7110    0.9660  -17.2200 H   0  0  0  0  0  0  0  0  0  0  0  0
   -7.2760   -2.0220  -18.3730 H   0  0  0  0  0  0  0  0  0  0  0  0
   -6.7340   -3.4040  -20.9250 C   0  0  0  0  0  0  0  0  0  0  0  0
   -6.1160   -4.1030  -20.1490 O   0  0  0  0  0  0  0  0  0  0  0  0
   -7.7920   -5.7470  -21.4960 H   0  0  0  0  0  0  0  0  0  0  0  0
   -8.7940   -5.2120  -22.8710 H   0  0  0  0  0  0  0  0  0  0  0  0
   -7.0430   -5.5050  -23.0930 H   0  0  0  0  0  0  0  0  0  0  0  0
  1  2  1  0  0  0  0
  1 38  1  0  0  0  0
  1 39  1  0  0  0  0
  1 40  1  0  0  0  0
  2  3  1  0  0  0  0
  2 36  1  0  0  0  0
  3  4  1  0  0  0  0
  3 18  2  0  0  0  0
  4  5  1  0  0  0  0
  4 16  1  0  0  0  0
  4 17  1  0  0  0  0
  5  6  2  0  0  0  0
  5 10  1  0  0  0  0
  6  7  1  0  0  0  0
  6 15  1  0  0  0  0
  7  8  2  0  0  0  0
  7 14  1  0  0  0  0
  8  9  1  0  0  0  0
  8 13  1  0  0  0  0
  9 10  2  0  0  0  0
  9 12  1  0  0  0  0
 10 11  1  0  0  0  0
 18 19  1  0  0  0  0
 19 20  1  0  0  0  0
 19 36  1  0  0  0  0
 20 21  2  0  0  0  0
 20 29  1  0  0  0  0
 21 22  1  0  0  0  0
 21 35  1  0  0  0  0
 22 23  2  0  0  0  0
 23 24  1  0  0  0  0
 23 34  1  0  0  0  0
 24 25  2  0  0  0  0
 24 29  1  0  0  0  0
 25 26  1  0  0  0  0
 25 33  1  0  0  0  0
 26 27  2  0  0  0  0
 26 32  1  0  0  0  0
 27 28  1  0  0  0  0
 27 31  1  0  0  0  0
 28 29  2  0  0  0  0
 28 30  1  0  0  0  0
 36 37  2  0  0  0  0
M  END
>  <MODEL>
       6

$$$$
best_conformers_54.pdb
 OpenBabel01292518153D

 40 43  0  0  0  0  0  0  0  0999 V2000
   -8.6910   -2.7940  -23.9080 C   0  0  0  0  0  0  0  0  0  0  0  0
   -7.9530   -2.7660  -22.6550 N   0  0  0  0  0  0  0  0  0  0  0  0
   -7.4610   -3.8190  -21.9220 C   0  0  0  0  0  0  0  0  0  0  0  0
   -7.6240   -5.2490  -22.3090 C   0  0  0  0  0  0  0  0  0  0  0  0
   -6.6460   -5.6330  -23.3970 C   0  0  0  0  0  0  0  0  0  0  0  0
   -5.2920   -5.7670  -23.0900 C   0  0  0  0  0  0  0  0  0  0  0  0
   -4.3740   -6.0960  -24.0810 C   0  0  0  0  0  0  0  0  0  0  0  0
   -4.8010   -6.2820  -25.3930 C   0  0  0  0  0  0  0  0  0  0  0  0
   -6.1470   -6.1380  -25.7090 C   0  0  0  0  0  0  0  0  0  0  0  0
   -7.0620   -5.8120  -24.7130 C   0  0  0  0  0  0  0  0  0  0  0  0
   -8.1150   -5.6940  -24.9660 H   0  0  0  0  0  0  0  0  0  0  0  0
   -6.4880   -6.2810  -26.7310 H   0  0  0  0  0  0  0  0  0  0  0  0
   -4.0850   -6.5380  -26.1690 H   0  0  0  0  0  0  0  0  0  0  0  0
   -3.3210   -6.2050  -23.8340 H   0  0  0  0  0  0  0  0  0  0  0  0
   -4.9510   -5.6140  -22.0670 H   0  0  0  0  0  0  0  0  0  0  0  0
   -8.6550   -5.4410  -22.6300 H   0  0  0  0  0  0  0  0  0  0  0  0
   -7.4520   -5.8490  -21.4120 H   0  0  0  0  0  0  0  0  0  0  0  0
   -6.7570   -3.4220  -20.9010 N   0  0  0  0  0  0  0  0  0  0  0  0
   -6.7660   -2.0510  -20.9760 N   0  0  0  0  0  0  0  0  0  0  0  0
   -6.1410   -1.2150  -20.0000 C   0  0  0  0  0  0  0  0  0  0  0  0
   -6.5170   -1.2920  -18.6810 C   0  0  0  0  0  0  0  0  0  0  0  0
   -6.0180   -0.5150  -17.6880 N   0  0  0  0  0  0  0  0  0  0  0  0
   -5.0970    0.3700  -18.0050 C   0  0  0  0  0  0  0  0  0  0  0  0
   -4.6050    0.5530  -19.3300 C   0  0  0  0  0  0  0  0  0  0  0  0
   -3.5980    1.5160  -19.6290 C   0  0  0  0  0  0  0  0  0  0  0  0
   -3.1360    1.6460  -20.9120 C   0  0  0  0  0  0  0  0  0  0  0  0
   -3.6460    0.8260  -21.9400 C   0  0  0  0  0  0  0  0  0  0  0  0
   -4.6110   -0.1100  -21.6750 C   0  0  0  0  0  0  0  0  0  0  0  0
   -5.1310   -0.2580  -20.3570 C   0  0  0  0  0  0  0  0  0  0  0  0
   -4.9890   -0.7460  -22.4670 H   0  0  0  0  0  0  0  0  0  0  0  0
   -3.2670    0.9310  -22.9530 H   0  0  0  0  0  0  0  0  0  0  0  0
   -2.3700    2.3800  -21.1500 H   0  0  0  0  0  0  0  0  0  0  0  0
   -3.2040    2.1390  -18.8310 H   0  0  0  0  0  0  0  0  0  0  0  0
   -4.6870    0.9900  -17.2050 H   0  0  0  0  0  0  0  0  0  0  0  0
   -7.2770   -2.0070  -18.3760 H   0  0  0  0  0  0  0  0  0  0  0  0
   -7.5220   -1.5900  -22.0480 C   0  0  0  0  0  0  0  0  0  0  0  0
   -7.7420   -0.4420  -22.3770 O   0  0  0  0  0  0  0  0  0  0  0  0
   -9.2010   -1.8400  -24.0520 H   0  0  0  0  0  0  0  0  0  0  0  0
   -9.4540   -3.5770  -23.9040 H   0  0  0  0  0  0  0  0  0  0  0  0
   -8.0290   -2.9520  -24.7660 H   0  0  0  0  0  0  0  0  0  0  0  0
  1  2  1  0  0  0  0
  1 38  1  0  0  0  0
  1 39  1  0  0  0  0
  1 40  1  0  0  0  0
  2  3  1  0  0  0  0
  2 36  1  0  0  0  0
  3  4  1  0  0  0  0
  3 18  2  0  0  0  0
  4  5  1  0  0  0  0
  4 16  1  0  0  0  0
  4 17  1  0  0  0  0
  5  6  2  0  0  0  0
  5 10  1  0  0  0  0
  6  7  1  0  0  0  0
  6 15  1  0  0  0  0
  7  8  2  0  0  0  0
  7 14  1  0  0  0  0
  8  9  1  0  0  0  0
  8 13  1  0  0  0  0
  9 10  2  0  0  0  0
  9 12  1  0  0  0  0
 10 11  1  0  0  0  0
 18 19  1  0  0  0  0
 19 20  1  0  0  0  0
 19 36  1  0  0  0  0
 20 21  2  0  0  0  0
 20 29  1  0  0  0  0
 21 22  1  0  0  0  0
 21 35  1  0  0  0  0
 22 23  2  0  0  0  0
 23 24  1  0  0  0  0
 23 34  1  0  0  0  0
 24 25  2  0  0  0  0
 24 29  1  0  0  0  0
 25 26  1  0  0  0  0
 25 33  1  0  0  0  0
 26 27  2  0  0  0  0
 26 32  1  0  0  0  0
 27 28  1  0  0  0  0
 27 31  1  0  0  0  0
 28 29  2  0  0  0  0
 28 30  1  0  0  0  0
 36 37  2  0  0  0  0
M  END
>  <MODEL>
       7

$$$$
best_conformers_54.pdb
 OpenBabel01292518153D

 40 43  0  0  0  0  0  0  0  0999 V2000
   -8.6900   -2.7940  -23.9090 C   0  0  0  0  0  0  0  0  0  0  0  0
   -7.9530   -2.7660  -22.6550 N   0  0  0  0  0  0  0  0  0  0  0  0
   -7.4600   -3.8190  -21.9220 C   0  0  0  0  0  0  0  0  0  0  0  0
   -7.6240   -5.2490  -22.3090 C   0  0  0  0  0  0  0  0  0  0  0  0
   -6.6440   -5.6340  -23.3960 C   0  0  0  0  0  0  0  0  0  0  0  0
   -7.0580   -5.8110  -24.7130 C   0  0  0  0  0  0  0  0  0  0  0  0
   -6.1420   -6.1380  -25.7070 C   0  0  0  0  0  0  0  0  0  0  0  0
   -4.7960   -6.2830  -25.3900 C   0  0  0  0  0  0  0  0  0  0  0  0
   -4.3710   -6.0980  -24.0770 C   0  0  0  0  0  0  0  0  0  0  0  0
   -5.2900   -5.7680  -23.0870 C   0  0  0  0  0  0  0  0  0  0  0  0
   -4.9510   -5.6160  -22.0640 H   0  0  0  0  0  0  0  0  0  0  0  0
   -3.3190   -6.2080  -23.8280 H   0  0  0  0  0  0  0  0  0  0  0  0
   -4.0790   -6.5390  -26.1650 H   0  0  0  0  0  0  0  0  0  0  0  0
   -6.4810   -6.2810  -26.7300 H   0  0  0  0  0  0  0  0  0  0  0  0
   -8.1110   -5.6930  -24.9670 H   0  0  0  0  0  0  0  0  0  0  0  0
   -8.6540   -5.4410  -22.6310 H   0  0  0  0  0  0  0  0  0  0  0  0
   -7.4520   -5.8490  -21.4110 H   0  0  0  0  0  0  0  0  0  0  0  0
   -6.7570   -3.4220  -20.9010 N   0  0  0  0  0  0  0  0  0  0  0  0
   -6.7660   -2.0510  -20.9760 N   0  0  0  0  0  0  0  0  0  0  0  0
   -6.1410   -1.2150  -20.0000 C   0  0  0  0  0  0  0  0  0  0  0  0
   -6.5170   -1.2930  -18.6810 C   0  0  0  0  0  0  0  0  0  0  0  0
   -6.0180   -0.5150  -17.6880 N   0  0  0  0  0  0  0  0  0  0  0  0
   -5.0970    0.3700  -18.0050 C   0  0  0  0  0  0  0  0  0  0  0  0
   -4.6050    0.5530  -19.3300 C   0  0  0  0  0  0  0  0  0  0  0  0
   -3.5980    1.5160  -19.6290 C   0  0  0  0  0  0  0  0  0  0  0  0
   -3.1360    1.6460  -20.9120 C   0  0  0  0  0  0  0  0  0  0  0  0
   -3.6450    0.8260  -21.9400 C   0  0  0  0  0  0  0  0  0  0  0  0
   -4.6110   -0.1100  -21.6750 C   0  0  0  0  0  0  0  0  0  0  0  0
   -5.1310   -0.2580  -20.3570 C   0  0  0  0  0  0  0  0  0  0  0  0
   -4.9890   -0.7460  -22.4670 H   0  0  0  0  0  0  0  0  0  0  0  0
   -3.2670    0.9310  -22.9530 H   0  0  0  0  0  0  0  0  0  0  0  0
   -2.3700    2.3800  -21.1500 H   0  0  0  0  0  0  0  0  0  0  0  0
   -3.2040    2.1390  -18.8310 H   0  0  0  0  0  0  0  0  0  0  0  0
   -4.6870    0.9900  -17.2050 H   0  0  0  0  0  0  0  0  0  0  0  0
   -7.2770   -2.0070  -18.3760 H   0  0  0  0  0  0  0  0  0  0  0  0
   -7.5220   -1.5900  -22.0480 C   0  0  0  0  0  0  0  0  0  0  0  0
   -7.7420   -0.4430  -22.3770 O   0  0  0  0  0  0  0  0  0  0  0  0
   -8.0270   -2.9530  -24.7660 H   0  0  0  0  0  0  0  0  0  0  0  0
   -9.4530   -3.5770  -23.9040 H   0  0  0  0  0  0  0  0  0  0  0  0
   -9.2000   -1.8400  -24.0530 H   0  0  0  0  0  0  0  0  0  0  0  0
  1  2  1  0  0  0  0
  1 38  1  0  0  0  0
  1 39  1  0  0  0  0
  1 40  1  0  0  0  0
  2  3  1  0  0  0  0
  2 36  1  0  0  0  0
  3  4  1  0  0  0  0
  3 18  2  0  0  0  0
  4  5  1  0  0  0  0
  4 16  1  0  0  0  0
  4 17  1  0  0  0  0
  5  6  2  0  0  0  0
  5 10  1  0  0  0  0
  6  7  1  0  0  0  0
  6 15  1  0  0  0  0
  7  8  2  0  0  0  0
  7 14  1  0  0  0  0
  8  9  1  0  0  0  0
  8 13  1  0  0  0  0
  9 10  2  0  0  0  0
  9 12  1  0  0  0  0
 10 11  1  0  0  0  0
 18 19  1  0  0  0  0
 19 20  1  0  0  0  0
 19 36  1  0  0  0  0
 20 21  2  0  0  0  0
 20 29  1  0  0  0  0
 21 22  1  0  0  0  0
 21 35  1  0  0  0  0
 22 23  2  0  0  0  0
 23 24  1  0  0  0  0
 23 34  1  0  0  0  0
 24 25  2  0  0  0  0
 24 29  1  0  0  0  0
 25 26  1  0  0  0  0
 25 33  1  0  0  0  0
 26 27  2  0  0  0  0
 26 32  1  0  0  0  0
 27 28  1  0  0  0  0
 27 31  1  0  0  0  0
 28 29  2  0  0  0  0
 28 30  1  0  0  0  0
 36 37  2  0  0  0  0
M  END
>  <MODEL>
       8

$$$$
