best_conformers_32.pdb
 OpenBabel01292518153D

 57 62  0  0  1  0  0  0  0  0999 V2000
   -6.9540   -5.1740  -22.9030 C   0  0  0  0  0  0  0  0  0  0  0  0
   -7.4710   -3.9700  -22.1180 C   0  0  1  0  0  0  0  0  0  0  0  0
   -6.4560   -3.4510  -21.0830 C   0  0  0  0  0  0  0  0  0  0  0  0
   -6.7750   -2.0410  -20.9670 N   0  0  0  0  0  0  0  0  0  0  0  0
   -6.1720   -1.1890  -20.0090 C   0  0  0  0  0  0  0  0  0  0  0  0
   -6.5330   -1.2960  -18.6900 C   0  0  0  0  0  0  0  0  0  0  0  0
   -6.0260   -0.5360  -17.6900 N   0  0  0  0  0  0  0  0  0  0  0  0
   -5.1100    0.3480  -18.0180 C   0  0  0  0  0  0  0  0  0  0  0  0
   -4.6180    0.5400  -19.3420 C   0  0  0  0  0  0  0  0  0  0  0  0
   -3.6140    1.5010  -19.6360 C   0  0  0  0  0  0  0  0  0  0  0  0
   -3.1410    1.6470  -20.9110 C   0  0  0  0  0  0  0  0  0  0  0  0
   -3.6460    0.8310  -21.9520 C   0  0  0  0  0  0  0  0  0  0  0  0
   -4.6190   -0.1000  -21.6920 C   0  0  0  0  0  0  0  0  0  0  0  0
   -5.1510   -0.2570  -20.3800 C   0  0  0  0  0  0  0  0  0  0  0  0
   -4.9980   -0.7150  -22.5030 H   0  0  0  0  0  0  0  0  0  0  0  0
   -3.2750    0.9590  -22.9630 H   0  0  0  0  0  0  0  0  0  0  0  0
   -2.3860    2.3960  -21.1350 H   0  0  0  0  0  0  0  0  0  0  0  0
   -3.2410    2.1200  -18.8250 H   0  0  0  0  0  0  0  0  0  0  0  0
   -4.7130    0.9630  -17.2130 H   0  0  0  0  0  0  0  0  0  0  0  0
   -7.2840   -2.0280  -18.3940 H   0  0  0  0  0  0  0  0  0  0  0  0
   -7.5360   -1.5510  -22.0030 C   0  0  0  0  0  0  0  0  0  0  0  0
   -7.8630   -0.3880  -22.1170 O   0  0  0  0  0  0  0  0  0  0  0  0
   -7.8830   -2.7090  -22.9610 C   0  0  1  0  0  0  0  0  0  0  0  0
   -7.0970   -2.4760  -24.2640 C   0  0  0  0  0  0  0  0  0  0  0  0
   -7.5540   -3.2890  -25.3880 N   0  0  0  0  0  0  0  0  0  0  0  0
   -6.5660   -3.5270  -26.4350 C   0  0  0  0  0  0  0  0  0  0  0  0
   -5.6010   -4.6240  -26.1000 C   0  0  0  0  0  0  0  0  0  0  0  0
   -4.3830   -4.4930  -25.6090 N   0  0  0  0  0  0  0  0  0  0  0  0
   -3.9030   -5.7470  -25.4540 N   0  0  0  0  0  0  0  0  0  0  0  0
   -4.7730   -6.6200  -25.8220 N   0  0  0  0  0  0  0  0  0  0  0  0
   -5.8540   -5.9360  -26.2380 N   0  0  0  0  0  0  0  0  0  0  0  0
   -7.0470   -6.6110  -26.7100 C   0  0  0  0  0  0  0  0  0  0  0  0
   -7.3610   -6.1860  -27.6700 H   0  0  0  0  0  0  0  0  0  0  0  0
   -7.8610   -6.5080  -25.9820 H   0  0  0  0  0  0  0  0  0  0  0  0
   -6.7770   -7.6620  -26.8250 H   0  0  0  0  0  0  0  0  0  0  0  0
   -5.9770   -2.6150  -26.5770 H   0  0  0  0  0  0  0  0  0  0  0  0
   -7.1250   -3.7420  -27.3500 H   0  0  0  0  0  0  0  0  0  0  0  0
   -8.8770   -3.5510  -25.6330 C   0  0  0  0  0  0  0  0  0  0  0  0
   -9.2680   -4.0860  -26.6670 O   0  0  0  0  0  0  0  0  0  0  0  0
   -9.8230   -3.1730  -24.5330 C   0  0  0  0  0  0  0  0  0  0  0  0
  -11.1910   -3.3540  -24.7430 C   0  0  0  0  0  0  0  0  0  0  0  0
  -12.0770   -3.0840  -23.7140 C   0  0  0  0  0  0  0  0  0  0  0  0
  -11.6070   -2.5930  -22.5120 C   0  0  0  0  0  0  0  0  0  0  0  0
  -12.5080   -2.2800  -21.5680 F   0  0  0  0  0  0  0  0  0  0  0  0
  -10.2650   -2.4250  -22.2690 C   0  0  0  0  0  0  0  0  0  0  0  0
   -9.3570   -2.7230  -23.2900 C   0  0  0  0  0  0  0  0  0  0  0  0
   -9.9240   -2.0910  -21.2930 H   0  0  0  0  0  0  0  0  0  0  0  0
  -13.1440   -3.2550  -23.7480 H   0  0  0  0  0  0  0  0  0  0  0  0
  -11.5140   -3.7000  -25.7210 H   0  0  0  0  0  0  0  0  0  0  0  0
   -7.1970   -1.4030  -24.4960 H   0  0  0  0  0  0  0  0  0  0  0  0
   -6.0370   -2.7210  -24.1210 H   0  0  0  0  0  0  0  0  0  0  0  0
   -5.4230   -3.5930  -21.4410 H   0  0  0  0  0  0  0  0  0  0  0  0
   -6.5320   -3.9330  -20.1040 H   0  0  0  0  0  0  0  0  0  0  0  0
   -8.3930   -4.2540  -21.5910 H   0  0  0  0  0  0  0  0  0  0  0  0
   -6.7850   -6.0320  -22.2430 H   0  0  0  0  0  0  0  0  0  0  0  0
   -6.0010   -4.9280  -23.3850 H   0  0  0  0  0  0  0  0  0  0  0  0
   -7.6660   -5.4770  -23.6800 H   0  0  0  0  0  0  0  0  0  0  0  0
  1  2  1  0  0  0  0
  1 55  1  0  0  0  0
  1 56  1  0  0  0  0
  1 57  1  0  0  0  0
  2  3  1  0  0  0  0
  2 23  1  0  0  0  0
  2 54  1  1  0  0  0
  3  4  1  0  0  0  0
  3 52  1  0  0  0  0
  3 53  1  0  0  0  0
  4  5  1  0  0  0  0
  4 21  1  0  0  0  0
  5  6  2  0  0  0  0
  5 14  1  0  0  0  0
  6  7  1  0  0  0  0
  6 20  1  0  0  0  0
  7  8  2  0  0  0  0
  8  9  1  0  0  0  0
  8 19  1  0  0  0  0
  9 10  2  0  0  0  0
  9 14  1  0  0  0  0
 10 11  1  0  0  0  0
 10 18  1  0  0  0  0
 11 12  2  0  0  0  0
 11 17  1  0  0  0  0
 12 13  1  0  0  0  0
 12 16  1  0  0  0  0
 13 14  2  0  0  0  0
 13 15  1  0  0  0  0
 21 22  2  0  0  0  0
 23 21  1  1  0  0  0
 23 24  1  0  0  0  0
 23 46  1  0  0  0  0
 24 25  1  0  0  0  0
 24 50  1  0  0  0  0
 24 51  1  0  0  0  0
 25 26  1  0  0  0  0
 25 38  1  0  0  0  0
 26 27  1  0  0  0  0
 26 36  1  0  0  0  0
 26 37  1  0  0  0  0
 27 28  2  0  0  0  0
 27 31  1  0  0  0  0
 28 29  1  0  0  0  0
 29 30  2  0  0  0  0
 30 31  1  0  0  0  0
 31 32  1  0  0  0  0
 32 33  1  0  0  0  0
 32 34  1  0  0  0  0
 32 35  1  0  0  0  0
 38 39  2  0  0  0  0
 38 40  1  0  0  0  0
 40 41  2  0  0  0  0
 40 46  1  0  0  0  0
 41 42  1  0  0  0  0
 41 49  1  0  0  0  0
 42 43  2  0  0  0  0
 42 48  1  0  0  0  0
 43 44  1  0  0  0  0
 43 45  1  0  0  0  0
 45 46  2  0  0  0  0
 45 47  1  0  0  0  0
M  END
>  <MODEL>
       1

$$$$
