best_conformers_43.pdb
 OpenBabel01292518153D

 67 72  0  0  1  0  0  0  0  0999 V2000
   -6.8730    2.5730  -23.6400 C   0  0  0  0  0  0  0  0  0  0  0  0
   -7.5660    1.6980  -24.5640 N   0  0  0  0  0  0  0  0  0  0  0  0
   -6.9310    0.5920  -25.0150 C   0  0  0  0  0  0  0  0  0  0  0  0
   -5.7520    0.3460  -24.7870 O   0  0  0  0  0  0  0  0  0  0  0  0
   -7.8170   -0.3650  -25.8150 C   0  0  0  0  0  0  0  0  0  0  0  0
   -8.5930   -1.1970  -24.9120 N   0  0  0  0  0  0  0  0  0  0  0  0
   -7.9870   -2.3640  -24.2980 C   0  0  0  0  0  0  0  0  0  0  0  0
   -8.3130   -2.5230  -22.7770 C   0  0  2  0  0  0  0  0  0  0  0  0
   -7.6800   -1.3310  -22.0150 C   0  0  0  0  0  0  0  0  0  0  0  0
   -7.9480   -0.1530  -22.1490 O   0  0  0  0  0  0  0  0  0  0  0  0
   -6.7070   -1.8000  -21.1590 N   0  0  0  0  0  0  0  0  0  0  0  0
   -6.1340   -1.0270  -20.1320 C   0  0  0  0  0  0  0  0  0  0  0  0
   -6.5050   -1.2050  -18.8190 C   0  0  0  0  0  0  0  0  0  0  0  0
   -6.0150   -0.4950  -17.7790 N   0  0  0  0  0  0  0  0  0  0  0  0
   -5.0930    0.4030  -18.0460 C   0  0  0  0  0  0  0  0  0  0  0  0
   -4.5750    0.6410  -19.3540 C   0  0  0  0  0  0  0  0  0  0  0  0
   -3.5600    1.6070  -19.6080 C   0  0  0  0  0  0  0  0  0  0  0  0
   -3.0660    1.7810  -20.8730 C   0  0  0  0  0  0  0  0  0  0  0  0
   -3.5500    1.0010  -21.9480 C   0  0  0  0  0  0  0  0  0  0  0  0
   -4.5340    0.0660  -21.7340 C   0  0  0  0  0  0  0  0  0  0  0  0
   -5.0870   -0.1120  -20.4350 C   0  0  0  0  0  0  0  0  0  0  0  0
   -4.8940   -0.5280  -22.5690 H   0  0  0  0  0  0  0  0  0  0  0  0
   -3.1600    1.1480  -22.9530 H   0  0  0  0  0  0  0  0  0  0  0  0
   -2.3010    2.5310  -21.0630 H   0  0  0  0  0  0  0  0  0  0  0  0
   -3.1940    2.2070  -18.7780 H   0  0  0  0  0  0  0  0  0  0  0  0
   -4.7010    0.9760  -17.2040 H   0  0  0  0  0  0  0  0  0  0  0  0
   -7.2700   -1.9330  -18.5470 H   0  0  0  0  0  0  0  0  0  0  0  0
   -6.7360   -3.2200  -20.9680 C   0  0  0  0  0  0  0  0  0  0  0  0
   -7.5500   -3.7460  -22.1640 C   0  0  2  0  0  0  0  0  0  0  0  0
   -6.5260   -4.3760  -23.1490 C   0  0  0  0  0  0  0  0  0  0  0  0
   -5.8790   -5.5400  -22.6090 N   0  0  0  0  0  0  0  0  0  0  0  0
   -6.4090   -6.7910  -22.7430 C   0  0  0  0  0  0  0  0  0  0  0  0
   -7.8900   -7.1100  -23.6000 S   0  0  0  0  0  0  0  0  0  0  0  0
   -7.7250   -8.7670  -23.0960 C   0  0  0  0  0  0  0  0  0  0  0  0
   -6.6770   -9.0580  -22.3990 N   0  0  0  0  0  0  0  0  0  0  0  0
   -5.9210   -7.9260  -22.1710 C   0  0  0  0  0  0  0  0  0  0  0  0
   -4.7300   -7.8740  -21.2580 C   0  0  0  0  0  0  0  0  0  0  0  0
   -3.7940   -7.7470  -21.8150 H   0  0  0  0  0  0  0  0  0  0  0  0
   -4.6240   -8.7760  -20.6580 H   0  0  0  0  0  0  0  0  0  0  0  0
   -4.8040   -7.0260  -20.5620 H   0  0  0  0  0  0  0  0  0  0  0  0
   -8.5500   -9.4540  -23.2430 H   0  0  0  0  0  0  0  0  0  0  0  0
   -4.9160   -5.4810  -22.3140 H   0  0  0  0  0  0  0  0  0  0  0  0
   -7.0050   -4.6660  -24.0870 H   0  0  0  0  0  0  0  0  0  0  0  0
   -5.7340   -3.6490  -23.3630 H   0  0  0  0  0  0  0  0  0  0  0  0
   -8.2230   -4.5520  -21.8640 H   0  0  0  0  0  0  0  0  0  0  0  0
   -7.1700   -3.4120  -19.9940 H   0  0  0  0  0  0  0  0  0  0  0  0
   -5.7090   -3.6030  -20.9300 H   0  0  0  0  0  0  0  0  0  0  0  0
   -9.8500   -2.4880  -22.6900 C   0  0  0  0  0  0  0  0  0  0  0  0
  -10.6470   -3.2170  -21.7870 C   0  0  0  0  0  0  0  0  0  0  0  0
  -12.0260   -3.0120  -21.7530 C   0  0  0  0  0  0  0  0  0  0  0  0
  -13.0520   -3.7130  -20.5200 Cl  0  0  0  0  0  0  0  0  0  0  0  0
  -12.6670   -2.1720  -22.6580 C   0  0  0  0  0  0  0  0  0  0  0  0
  -11.8990   -1.4420  -23.5340 C   0  0  0  0  0  0  0  0  0  0  0  0
  -10.5180   -1.5800  -23.5350 C   0  0  0  0  0  0  0  0  0  0  0  0
   -9.7870   -0.7190  -24.5010 C   0  0  0  0  0  0  0  0  0  0  0  0
  -10.2530    0.3520  -24.9040 O   0  0  0  0  0  0  0  0  0  0  0  0
  -12.3460   -0.7400  -24.2300 H   0  0  0  0  0  0  0  0  0  0  0  0
  -13.7500   -2.0940  -22.6470 H   0  0  0  0  0  0  0  0  0  0  0  0
  -10.2210   -3.9510  -21.1100 H   0  0  0  0  0  0  0  0  0  0  0  0
   -6.9130   -2.2640  -24.4450 H   0  0  0  0  0  0  0  0  0  0  0  0
   -8.3520   -3.2650  -24.8080 H   0  0  0  0  0  0  0  0  0  0  0  0
   -7.1790   -0.9810  -26.4550 H   0  0  0  0  0  0  0  0  0  0  0  0
   -8.5360    0.1830  -26.4280 H   0  0  0  0  0  0  0  0  0  0  0  0
   -8.5800    1.6770  -24.5620 H   0  0  0  0  0  0  0  0  0  0  0  0
   -7.5500    3.3670  -23.3180 H   0  0  0  0  0  0  0  0  0  0  0  0
   -6.0010    3.0130  -24.1310 H   0  0  0  0  0  0  0  0  0  0  0  0
   -6.5150    2.0150  -22.7670 H   0  0  0  0  0  0  0  0  0  0  0  0
  1  2  1  0  0  0  0
  1 65  1  0  0  0  0
  1 66  1  0  0  0  0
  1 67  1  0  0  0  0
  2  3  1  0  0  0  0
  2 64  1  0  0  0  0
  3  4  2  0  0  0  0
  3  5  1  0  0  0  0
  5  6  1  0  0  0  0
  5 62  1  0  0  0  0
  5 63  1  0  0  0  0
  6  7  1  0  0  0  0
  6 55  1  0  0  0  0
  7  8  1  0  0  0  0
  7 60  1  0  0  0  0
  7 61  1  0  0  0  0
  8  9  1  1  0  0  0
  8 29  1  0  0  0  0
  8 48  1  0  0  0  0
  9 10  2  0  0  0  0
  9 11  1  0  0  0  0
 11 12  1  0  0  0  0
 11 28  1  0  0  0  0
 12 13  2  0  0  0  0
 12 21  1  0  0  0  0
 13 14  1  0  0  0  0
 13 27  1  0  0  0  0
 14 15  2  0  0  0  0
 15 16  1  0  0  0  0
 15 26  1  0  0  0  0
 16 17  2  0  0  0  0
 16 21  1  0  0  0  0
 17 18  1  0  0  0  0
 17 25  1  0  0  0  0
 18 19  2  0  0  0  0
 18 24  1  0  0  0  0
 19 20  1  0  0  0  0
 19 23  1  0  0  0  0
 20 21  2  0  0  0  0
 20 22  1  0  0  0  0
 28 29  1  0  0  0  0
 28 46  1  0  0  0  0
 28 47  1  0  0  0  0
 29 30  1  0  0  0  0
 29 45  1  1  0  0  0
 30 31  1  0  0  0  0
 30 43  1  0  0  0  0
 30 44  1  0  0  0  0
 31 32  1  0  0  0  0
 31 42  1  0  0  0  0
 32 33  1  0  0  0  0
 32 36  2  0  0  0  0
 33 34  1  0  0  0  0
 34 35  2  0  0  0  0
 34 41  1  0  0  0  0
 35 36  1  0  0  0  0
 36 37  1  0  0  0  0
 37 38  1  0  0  0  0
 37 39  1  0  0  0  0
 37 40  1  0  0  0  0
 48 49  2  0  0  0  0
 48 54  1  0  0  0  0
 49 50  1  0  0  0  0
 49 59  1  0  0  0  0
 50 51  1  0  0  0  0
 50 52  2  0  0  0  0
 52 53  1  0  0  0  0
 52 58  1  0  0  0  0
 53 54  2  0  0  0  0
 53 57  1  0  0  0  0
 54 55  1  0  0  0  0
 55 56  2  0  0  0  0
M  END
>  <MODEL>
       1

$$$$
best_conformers_43.pdb
 OpenBabel01292518153D

 67 72  0  0  1  0  0  0  0  0999 V2000
   -6.8650    2.5970  -23.6250 C   0  0  0  0  0  0  0  0  0  0  0  0
   -7.5800    1.7090  -24.5260 N   0  0  0  0  0  0  0  0  0  0  0  0
   -6.9390    0.6070  -24.9940 C   0  0  0  0  0  0  0  0  0  0  0  0
   -5.7520    0.3860  -24.7890 O   0  0  0  0  0  0  0  0  0  0  0  0
   -7.8200   -0.3590  -25.7900 C   0  0  0  0  0  0  0  0  0  0  0  0
   -8.5700   -1.2200  -24.8940 N   0  0  0  0  0  0  0  0  0  0  0  0
   -7.9500   -2.3950  -24.3150 C   0  0  0  0  0  0  0  0  0  0  0  0
   -8.2580   -2.5780  -22.7960 C   0  0  2  0  0  0  0  0  0  0  0  0
   -7.6330   -1.3940  -22.0170 C   0  0  0  0  0  0  0  0  0  0  0  0
   -7.9040   -0.2120  -22.1330 O   0  0  0  0  0  0  0  0  0  0  0  0
   -6.6710   -1.8750  -21.1600 N   0  0  0  0  0  0  0  0  0  0  0  0
   -6.1230   -1.0990  -20.1210 C   0  0  0  0  0  0  0  0  0  0  0  0
   -6.5130   -1.2610  -18.8130 C   0  0  0  0  0  0  0  0  0  0  0  0
   -6.0360   -0.5340  -17.7760 N   0  0  0  0  0  0  0  0  0  0  0  0
   -5.1160    0.3650  -18.0500 C   0  0  0  0  0  0  0  0  0  0  0  0
   -4.5910    0.5980  -19.3570 C   0  0  0  0  0  0  0  0  0  0  0  0
   -3.5840    1.5680  -19.6230 C   0  0  0  0  0  0  0  0  0  0  0  0
   -3.0990    1.7360  -20.8930 C   0  0  0  0  0  0  0  0  0  0  0  0
   -3.5830    0.9480  -21.9620 C   0  0  0  0  0  0  0  0  0  0  0  0
   -4.5550    0.0070  -21.7330 C   0  0  0  0  0  0  0  0  0  0  0  0
   -5.0950   -0.1690  -20.4290 C   0  0  0  0  0  0  0  0  0  0  0  0
   -4.9240   -0.5970  -22.5550 H   0  0  0  0  0  0  0  0  0  0  0  0
   -3.2070    1.0940  -22.9730 H   0  0  0  0  0  0  0  0  0  0  0  0
   -2.3360    2.4840  -21.0910 H   0  0  0  0  0  0  0  0  0  0  0  0
   -3.2170    2.1760  -18.7990 H   0  0  0  0  0  0  0  0  0  0  0  0
   -4.7320    0.9510  -17.2140 H   0  0  0  0  0  0  0  0  0  0  0  0
   -7.2780   -1.9890  -18.5470 H   0  0  0  0  0  0  0  0  0  0  0  0
   -6.6890   -3.3000  -21.0020 C   0  0  0  0  0  0  0  0  0  0  0  0
   -7.4850   -3.8140  -22.2170 C   0  0  2  0  0  0  0  0  0  0  0  0
   -6.4760   -4.4510  -23.2090 C   0  0  0  0  0  0  0  0  0  0  0  0
   -5.8770   -5.6190  -22.6260 N   0  0  0  0  0  0  0  0  0  0  0  0
   -4.7960   -6.3010  -23.1410 C   0  0  0  0  0  0  0  0  0  0  0  0
   -4.0960   -6.0770  -24.7280 S   0  0  0  0  0  0  0  0  0  0  0  0
   -3.0110   -7.3920  -24.3610 C   0  0  0  0  0  0  0  0  0  0  0  0
   -3.1400   -7.9300  -23.1970 N   0  0  0  0  0  0  0  0  0  0  0  0
   -4.1560   -7.3150  -22.4970 C   0  0  0  0  0  0  0  0  0  0  0  0
   -4.6230   -7.9380  -21.2250 C   0  0  0  0  0  0  0  0  0  0  0  0
   -3.8320   -8.5770  -20.8330 H   0  0  0  0  0  0  0  0  0  0  0  0
   -4.9450   -7.2430  -20.4420 H   0  0  0  0  0  0  0  0  0  0  0  0
   -5.4580   -8.5870  -21.4880 H   0  0  0  0  0  0  0  0  0  0  0  0
   -2.3010   -7.7570  -25.0870 H   0  0  0  0  0  0  0  0  0  0  0  0
   -6.4390   -6.1420  -21.9700 H   0  0  0  0  0  0  0  0  0  0  0  0
   -5.6830   -3.7210  -23.4260 H   0  0  0  0  0  0  0  0  0  0  0  0
   -6.9700   -4.7050  -24.1520 H   0  0  0  0  0  0  0  0  0  0  0  0
   -8.1760   -4.6150  -21.9350 H   0  0  0  0  0  0  0  0  0  0  0  0
   -5.6650   -3.6830  -20.9720 H   0  0  0  0  0  0  0  0  0  0  0  0
   -7.1170   -3.5070  -20.0300 H   0  0  0  0  0  0  0  0  0  0  0  0
   -9.7940   -2.5440  -22.6660 C   0  0  0  0  0  0  0  0  0  0  0  0
  -10.5560   -3.2660  -21.7260 C   0  0  0  0  0  0  0  0  0  0  0  0
  -11.9370   -3.0740  -21.6600 C   0  0  0  0  0  0  0  0  0  0  0  0
  -12.9860   -3.7630  -20.4390 Cl  0  0  0  0  0  0  0  0  0  0  0  0
  -12.6090   -2.2480  -22.5520 C   0  0  0  0  0  0  0  0  0  0  0  0
  -11.8770   -1.5330  -23.4670 C   0  0  0  0  0  0  0  0  0  0  0  0
  -10.4970   -1.6670  -23.5160 C   0  0  0  0  0  0  0  0  0  0  0  0
   -9.8090   -0.8150  -24.5280 C   0  0  0  0  0  0  0  0  0  0  0  0
  -10.3490    0.1860  -25.0020 O   0  0  0  0  0  0  0  0  0  0  0  0
  -12.3590   -0.8670  -24.1730 H   0  0  0  0  0  0  0  0  0  0  0  0
  -13.6860   -2.1530  -22.4700 H   0  0  0  0  0  0  0  0  0  0  0  0
  -10.0740   -3.9400  -21.0230 H   0  0  0  0  0  0  0  0  0  0  0  0
   -6.8780   -2.2880  -24.4710 H   0  0  0  0  0  0  0  0  0  0  0  0
   -8.3070   -3.2890  -24.8430 H   0  0  0  0  0  0  0  0  0  0  0  0
   -7.1800   -0.9520  -26.4480 H   0  0  0  0  0  0  0  0  0  0  0  0
   -8.5600    0.1760  -26.3910 H   0  0  0  0  0  0  0  0  0  0  0  0
   -8.5940    1.7090  -24.5080 H   0  0  0  0  0  0  0  0  0  0  0  0
   -6.0150    3.0510  -24.1470 H   0  0  0  0  0  0  0  0  0  0  0  0
   -6.4750    2.0470  -22.7570 H   0  0  0  0  0  0  0  0  0  0  0  0
   -7.5410    3.3870  -23.2850 H   0  0  0  0  0  0  0  0  0  0  0  0
  1  2  1  0  0  0  0
  1 65  1  0  0  0  0
  1 66  1  0  0  0  0
  1 67  1  0  0  0  0
  2  3  1  0  0  0  0
  2 64  1  0  0  0  0
  3  4  2  0  0  0  0
  3  5  1  0  0  0  0
  5  6  1  0  0  0  0
  5 62  1  0  0  0  0
  5 63  1  0  0  0  0
  6  7  1  0  0  0  0
  6 55  1  0  0  0  0
  7  8  1  0  0  0  0
  7 60  1  0  0  0  0
  7 61  1  0  0  0  0
  8  9  1  1  0  0  0
  8 29  1  0  0  0  0
  8 48  1  0  0  0  0
  9 10  2  0  0  0  0
  9 11  1  0  0  0  0
 11 12  1  0  0  0  0
 11 28  1  0  0  0  0
 12 13  2  0  0  0  0
 12 21  1  0  0  0  0
 13 14  1  0  0  0  0
 13 27  1  0  0  0  0
 14 15  2  0  0  0  0
 15 16  1  0  0  0  0
 15 26  1  0  0  0  0
 16 17  2  0  0  0  0
 16 21  1  0  0  0  0
 17 18  1  0  0  0  0
 17 25  1  0  0  0  0
 18 19  2  0  0  0  0
 18 24  1  0  0  0  0
 19 20  1  0  0  0  0
 19 23  1  0  0  0  0
 20 21  2  0  0  0  0
 20 22  1  0  0  0  0
 28 29  1  0  0  0  0
 28 46  1  0  0  0  0
 28 47  1  0  0  0  0
 29 30  1  0  0  0  0
 29 45  1  1  0  0  0
 30 31  1  0  0  0  0
 30 43  1  0  0  0  0
 30 44  1  0  0  0  0
 31 32  1  0  0  0  0
 31 42  1  0  0  0  0
 32 33  1  0  0  0  0
 32 36  2  0  0  0  0
 33 34  1  0  0  0  0
 34 35  2  0  0  0  0
 34 41  1  0  0  0  0
 35 36  1  0  0  0  0
 36 37  1  0  0  0  0
 37 38  1  0  0  0  0
 37 39  1  0  0  0  0
 37 40  1  0  0  0  0
 48 49  2  0  0  0  0
 48 54  1  0  0  0  0
 49 50  1  0  0  0  0
 49 59  1  0  0  0  0
 50 51  1  0  0  0  0
 50 52  2  0  0  0  0
 52 53  1  0  0  0  0
 52 58  1  0  0  0  0
 53 54  2  0  0  0  0
 53 57  1  0  0  0  0
 54 55  1  0  0  0  0
 55 56  2  0  0  0  0
M  END
>  <MODEL>
       2

$$$$
