best_conformers_38.pdb
 OpenBabel01292518153D

 46 48  0  0  1  0  0  0  0  0999 V2000
   -9.6150   -3.2390  -26.4510 C   0  0  0  0  0  0  0  0  0  0  0  0
  -10.0740   -3.4730  -25.0100 C   0  0  1  0  0  0  0  0  0  0  0  0
   -9.0620   -4.1790  -24.1070 C   0  0  0  0  0  0  0  0  0  0  0  0
   -7.9430   -3.3150  -23.5040 C   0  0  1  0  0  0  0  0  0  0  0  0
   -6.7450   -3.1400  -24.4480 C   0  0  0  0  0  0  0  0  0  0  0  0
   -5.9860   -2.4780  -24.0180 H   0  0  0  0  0  0  0  0  0  0  0  0
   -6.2660   -4.1110  -24.6310 H   0  0  0  0  0  0  0  0  0  0  0  0
   -7.0220   -2.7330  -25.4230 H   0  0  0  0  0  0  0  0  0  0  0  0
   -8.4680   -2.0530  -22.9550 N   0  0  0  0  0  0  0  0  0  0  0  0
   -7.8520   -1.3830  -21.9100 C   0  0  0  0  0  0  0  0  0  0  0  0
   -8.1600   -0.2390  -21.6220 O   0  0  0  0  0  0  0  0  0  0  0  0
   -6.7880   -2.1110  -21.0410 C   0  0  0  0  0  0  0  0  0  0  0  0
   -6.1430   -1.2130  -20.0070 C   0  0  0  0  0  0  0  0  0  0  0  0
   -6.5140   -1.2750  -18.6890 C   0  0  0  0  0  0  0  0  0  0  0  0
   -6.0200   -0.5090  -17.6760 N   0  0  0  0  0  0  0  0  0  0  0  0
   -5.0970    0.3670  -18.0000 C   0  0  0  0  0  0  0  0  0  0  0  0
   -4.6090    0.5540  -19.3220 C   0  0  0  0  0  0  0  0  0  0  0  0
   -3.6150    1.5200  -19.6290 C   0  0  0  0  0  0  0  0  0  0  0  0
   -3.1720    1.6850  -20.9140 C   0  0  0  0  0  0  0  0  0  0  0  0
   -3.7080    0.8890  -21.9510 C   0  0  0  0  0  0  0  0  0  0  0  0
   -4.6710   -0.0540  -21.6810 C   0  0  0  0  0  0  0  0  0  0  0  0
   -5.1490   -0.2510  -20.3580 C   0  0  0  0  0  0  0  0  0  0  0  0
   -5.0810   -0.6510  -22.4900 H   0  0  0  0  0  0  0  0  0  0  0  0
   -3.3580    1.0310  -22.9690 H   0  0  0  0  0  0  0  0  0  0  0  0
   -2.4160    2.4320  -21.1500 H   0  0  0  0  0  0  0  0  0  0  0  0
   -3.2160    2.1360  -18.8250 H   0  0  0  0  0  0  0  0  0  0  0  0
   -4.6890    0.9890  -17.1980 H   0  0  0  0  0  0  0  0  0  0  0  0
   -7.2710   -1.9890  -18.3700 H   0  0  0  0  0  0  0  0  0  0  0  0
   -6.0110   -2.5760  -21.6620 H   0  0  0  0  0  0  0  0  0  0  0  0
   -7.2940   -2.9350  -20.5190 H   0  0  0  0  0  0  0  0  0  0  0  0
   -9.4880   -1.2910  -23.7080 C   0  0  1  0  0  0  0  0  0  0  0  0
   -8.8890   -0.2930  -24.7110 C   0  0  0  0  0  0  0  0  0  0  0  0
   -8.4120    0.5360  -24.1770 H   0  0  0  0  0  0  0  0  0  0  0  0
   -9.6730    0.1340  -25.3500 H   0  0  0  0  0  0  0  0  0  0  0  0
   -8.1390   -0.7490  -25.3620 H   0  0  0  0  0  0  0  0  0  0  0  0
  -10.5630   -2.2160  -24.2960 C   0  0  0  0  0  0  0  0  0  0  0  0
  -11.2260   -2.5180  -23.4770 H   0  0  0  0  0  0  0  0  0  0  0  0
  -11.1910   -1.6350  -24.9790 H   0  0  0  0  0  0  0  0  0  0  0  0
   -9.9970   -0.6820  -22.9590 H   0  0  0  0  0  0  0  0  0  0  0  0
   -7.5760   -3.8800  -22.6420 H   0  0  0  0  0  0  0  0  0  0  0  0
   -9.6070   -4.6460  -23.2800 H   0  0  0  0  0  0  0  0  0  0  0  0
   -8.6010   -5.0040  -24.6610 H   0  0  0  0  0  0  0  0  0  0  0  0
  -10.9380   -4.1500  -25.0880 H   0  0  0  0  0  0  0  0  0  0  0  0
  -10.4640   -2.9630  -27.0840 H   0  0  0  0  0  0  0  0  0  0  0  0
   -8.8800   -2.4360  -26.5510 H   0  0  0  0  0  0  0  0  0  0  0  0
   -9.1820   -4.1510  -26.8780 H   0  0  0  0  0  0  0  0  0  0  0  0
  1  2  1  0  0  0  0
  1 44  1  0  0  0  0
  1 45  1  0  0  0  0
  1 46  1  0  0  0  0
  2  3  1  0  0  0  0
  2 36  1  0  0  0  0
  2 43  1  6  0  0  0
  3  4  1  0  0  0  0
  3 41  1  0  0  0  0
  3 42  1  0  0  0  0
  4  5  1  0  0  0  0
  4  9  1  0  0  0  0
  4 40  1  1  0  0  0
  5  6  1  0  0  0  0
  5  7  1  0  0  0  0
  5  8  1  0  0  0  0
  9 10  1  0  0  0  0
  9 31  1  0  0  0  0
 10 11  2  0  0  0  0
 10 12  1  0  0  0  0
 12 13  1  0  0  0  0
 12 29  1  0  0  0  0
 12 30  1  0  0  0  0
 13 14  2  0  0  0  0
 13 22  1  0  0  0  0
 14 15  1  0  0  0  0
 14 28  1  0  0  0  0
 15 16  2  0  0  0  0
 16 17  1  0  0  0  0
 16 27  1  0  0  0  0
 17 18  2  0  0  0  0
 17 22  1  0  0  0  0
 18 19  1  0  0  0  0
 18 26  1  0  0  0  0
 19 20  2  0  0  0  0
 19 25  1  0  0  0  0
 20 21  1  0  0  0  0
 20 24  1  0  0  0  0
 21 22  2  0  0  0  0
 21 23  1  0  0  0  0
 31 32  1  0  0  0  0
 31 36  1  0  0  0  0
 31 39  1  1  0  0  0
 32 33  1  0  0  0  0
 32 34  1  0  0  0  0
 32 35  1  0  0  0  0
 36 37  1  0  0  0  0
 36 38  1  0  0  0  0
M  END
>  <MODEL>
       1

$$$$
