best_conformers_55.pdb
 OpenBabel01292518153D

 61 66  0  0  1  0  0  0  0  0999 V2000
   -6.1370   -7.3330  -22.7370 C   0  0  0  0  0  0  0  0  0  0  0  0
   -6.6840   -6.2160  -22.0920 O   0  0  0  0  0  0  0  0  0  0  0  0
   -6.9100   -5.1390  -22.9660 C   0  0  0  0  0  0  0  0  0  0  0  0
   -7.3820   -3.9650  -22.1320 C   0  0  1  0  0  0  0  0  0  0  0  0
   -6.3450   -3.4570  -21.1290 C   0  0  0  0  0  0  0  0  0  0  0  0
   -6.7380   -2.0740  -20.9570 N   0  0  0  0  0  0  0  0  0  0  0  0
   -6.1500   -1.2190  -20.0070 C   0  0  0  0  0  0  0  0  0  0  0  0
   -6.5340   -1.3250  -18.6960 C   0  0  0  0  0  0  0  0  0  0  0  0
   -6.0560   -0.5570  -17.6910 N   0  0  0  0  0  0  0  0  0  0  0  0
   -5.1420    0.3300  -18.0170 C   0  0  0  0  0  0  0  0  0  0  0  0
   -4.6430    0.5230  -19.3390 C   0  0  0  0  0  0  0  0  0  0  0  0
   -3.6480    1.4960  -19.6150 C   0  0  0  0  0  0  0  0  0  0  0  0
   -3.1610    1.6470  -20.8840 C   0  0  0  0  0  0  0  0  0  0  0  0
   -3.6440    0.8390  -21.9350 C   0  0  0  0  0  0  0  0  0  0  0  0
   -4.6150   -0.1010  -21.6970 C   0  0  0  0  0  0  0  0  0  0  0  0
   -5.1460   -0.2770  -20.3830 C   0  0  0  0  0  0  0  0  0  0  0  0
   -4.9830   -0.7010  -22.5240 H   0  0  0  0  0  0  0  0  0  0  0  0
   -3.2430    0.9670  -22.9360 H   0  0  0  0  0  0  0  0  0  0  0  0
   -2.3960    2.3900  -21.0870 H   0  0  0  0  0  0  0  0  0  0  0  0
   -3.2900    2.1110  -18.7940 H   0  0  0  0  0  0  0  0  0  0  0  0
   -4.7380    0.9490  -17.2150 H   0  0  0  0  0  0  0  0  0  0  0  0
   -7.2970   -2.0550  -18.4320 H   0  0  0  0  0  0  0  0  0  0  0  0
   -7.5350   -1.5680  -21.9570 C   0  0  0  0  0  0  0  0  0  0  0  0
   -7.8790   -0.4080  -22.0300 O   0  0  0  0  0  0  0  0  0  0  0  0
   -7.8590   -2.7040  -22.9290 C   0  0  1  0  0  0  0  0  0  0  0  0
   -7.0710   -2.3980  -24.2240 C   0  0  0  0  0  0  0  0  0  0  0  0
   -7.5070   -3.1930  -25.3650 N   0  0  0  0  0  0  0  0  0  0  0  0
   -6.5420   -3.5300  -26.4030 C   0  0  0  0  0  0  0  0  0  0  0  0
   -5.9530   -4.8990  -26.2630 C   0  0  0  0  0  0  0  0  0  0  0  0
   -4.7290   -5.3210  -25.8480 C   0  0  0  0  0  0  0  0  0  0  0  0
   -4.7040   -6.6920  -25.9940 N   0  3  0  0  0  0  0  0  0  0  0  0
   -5.8860   -7.0830  -26.4800 C   0  0  0  0  0  0  0  0  0  0  0  0
   -6.6750   -6.0170  -26.6320 N   0  0  0  0  0  0  0  0  0  0  0  0
   -7.6460   -5.9940  -26.9550 H   0  0  0  0  0  0  0  0  0  0  0  0
   -6.1510   -8.1010  -26.6900 H   0  0  0  0  0  0  0  0  0  0  0  0
   -3.9250   -7.3050  -25.7520 H   0  0  0  0  0  0  0  0  0  0  0  0
   -3.8780   -4.7720  -25.4580 H   0  0  0  0  0  0  0  0  0  0  0  0
   -5.7620   -2.7670  -26.4080 H   0  0  0  0  0  0  0  0  0  0  0  0
   -7.0780   -3.4720  -27.3550 H   0  0  0  0  0  0  0  0  0  0  0  0
   -8.7940   -3.6010  -25.5710 C   0  0  0  0  0  0  0  0  0  0  0  0
   -9.1140   -4.2490  -26.5690 O   0  0  0  0  0  0  0  0  0  0  0  0
   -9.7690   -3.2630  -24.4910 C   0  0  0  0  0  0  0  0  0  0  0  0
  -11.1100   -3.5650  -24.7160 C   0  0  0  0  0  0  0  0  0  0  0  0
  -12.0330   -3.4480  -23.6960 C   0  0  0  0  0  0  0  0  0  0  0  0
  -11.6070   -2.9270  -22.4750 C   0  0  0  0  0  0  0  0  0  0  0  0
  -12.7760   -2.8130  -21.2050 Cl  0  0  0  0  0  0  0  0  0  0  0  0
  -10.2870   -2.5650  -22.2470 C   0  0  0  0  0  0  0  0  0  0  0  0
   -9.3350   -2.7910  -23.2480 C   0  0  0  0  0  0  0  0  0  0  0  0
   -9.9830   -2.1410  -21.2940 H   0  0  0  0  0  0  0  0  0  0  0  0
  -13.0570   -3.7880  -23.8210 H   0  0  0  0  0  0  0  0  0  0  0  0
  -11.3830   -3.9140  -25.7060 H   0  0  0  0  0  0  0  0  0  0  0  0
   -7.1880   -1.3240  -24.4380 H   0  0  0  0  0  0  0  0  0  0  0  0
   -5.9970   -2.5740  -24.0530 H   0  0  0  0  0  0  0  0  0  0  0  0
   -5.3160   -3.5400  -21.5080 H   0  0  0  0  0  0  0  0  0  0  0  0
   -6.3830   -3.9820  -20.1740 H   0  0  0  0  0  0  0  0  0  0  0  0
   -8.2470   -4.3180  -21.5630 H   0  0  0  0  0  0  0  0  0  0  0  0
   -7.6840   -5.3950  -23.7020 H   0  0  0  0  0  0  0  0  0  0  0  0
   -5.9960   -4.8810  -23.5170 H   0  0  0  0  0  0  0  0  0  0  0  0
   -6.7490   -7.6490  -23.5920 H   0  0  0  0  0  0  0  0  0  0  0  0
   -6.0970   -8.1490  -22.0130 H   0  0  0  0  0  0  0  0  0  0  0  0
   -5.1220   -7.1270  -23.1010 H   0  0  0  0  0  0  0  0  0  0  0  0
  1  2  1  0  0  0  0
  1 59  1  0  0  0  0
  1 60  1  0  0  0  0
  1 61  1  0  0  0  0
  2  3  1  0  0  0  0
  3  4  1  0  0  0  0
  3 57  1  0  0  0  0
  3 58  1  0  0  0  0
  4  5  1  0  0  0  0
  4 25  1  0  0  0  0
  4 56  1  1  0  0  0
  5  6  1  0  0  0  0
  5 54  1  0  0  0  0
  5 55  1  0  0  0  0
  6  7  1  0  0  0  0
  6 23  1  0  0  0  0
  7  8  2  0  0  0  0
  7 16  1  0  0  0  0
  8  9  1  0  0  0  0
  8 22  1  0  0  0  0
  9 10  2  0  0  0  0
 10 11  1  0  0  0  0
 10 21  1  0  0  0  0
 11 12  2  0  0  0  0
 11 16  1  0  0  0  0
 12 13  1  0  0  0  0
 12 20  1  0  0  0  0
 13 14  2  0  0  0  0
 13 19  1  0  0  0  0
 14 15  1  0  0  0  0
 14 18  1  0  0  0  0
 15 16  2  0  0  0  0
 15 17  1  0  0  0  0
 23 24  2  0  0  0  0
 25 23  1  1  0  0  0
 25 26  1  0  0  0  0
 25 48  1  0  0  0  0
 26 27  1  0  0  0  0
 26 52  1  0  0  0  0
 26 53  1  0  0  0  0
 27 28  1  0  0  0  0
 27 40  1  0  0  0  0
 28 29  1  0  0  0  0
 28 38  1  0  0  0  0
 28 39  1  0  0  0  0
 29 30  2  0  0  0  0
 29 33  1  0  0  0  0
 30 31  1  0  0  0  0
 30 37  1  0  0  0  0
 31 32  2  0  0  0  0
 31 36  1  0  0  0  0
 32 33  1  0  0  0  0
 32 35  1  0  0  0  0
 33 34  1  0  0  0  0
 40 41  2  0  0  0  0
 40 42  1  0  0  0  0
 42 43  2  0  0  0  0
 42 48  1  0  0  0  0
 43 44  1  0  0  0  0
 43 51  1  0  0  0  0
 44 45  2  0  0  0  0
 44 50  1  0  0  0  0
 45 46  1  0  0  0  0
 45 47  1  0  0  0  0
 47 48  2  0  0  0  0
 47 49  1  0  0  0  0
M  CHG  1  31   1
M  END
>  <MODEL>
       1

$$$$
best_conformers_55.pdb
 OpenBabel01292518153D

 61 66  0  0  1  0  0  0  0  0999 V2000
   -6.3090   -7.3950  -22.6510 C   0  0  0  0  0  0  0  0  0  0  0  0
   -6.7570   -6.2520  -21.9690 O   0  0  0  0  0  0  0  0  0  0  0  0
   -6.9850   -5.1860  -22.8610 C   0  0  0  0  0  0  0  0  0  0  0  0
   -7.4140   -3.9690  -22.0660 C   0  0  1  0  0  0  0  0  0  0  0  0
   -6.3380   -3.4650  -21.0990 C   0  0  0  0  0  0  0  0  0  0  0  0
   -6.7080   -2.0750  -20.9470 N   0  0  0  0  0  0  0  0  0  0  0  0
   -6.1330   -1.2200  -19.9960 C   0  0  0  0  0  0  0  0  0  0  0  0
   -6.5310   -1.3250  -18.6900 C   0  0  0  0  0  0  0  0  0  0  0  0
   -6.0570   -0.5560  -17.6840 N   0  0  0  0  0  0  0  0  0  0  0  0
   -5.1440    0.3310  -18.0100 C   0  0  0  0  0  0  0  0  0  0  0  0
   -4.6390    0.5240  -19.3280 C   0  0  0  0  0  0  0  0  0  0  0  0
   -3.6490    1.4990  -19.6060 C   0  0  0  0  0  0  0  0  0  0  0  0
   -3.1550    1.6520  -20.8700 C   0  0  0  0  0  0  0  0  0  0  0  0
   -3.6320    0.8400  -21.9260 C   0  0  0  0  0  0  0  0  0  0  0  0
   -4.6000   -0.1010  -21.6900 C   0  0  0  0  0  0  0  0  0  0  0  0
   -5.1370   -0.2760  -20.3770 C   0  0  0  0  0  0  0  0  0  0  0  0
   -4.9670   -0.7000  -22.5210 H   0  0  0  0  0  0  0  0  0  0  0  0
   -3.2270    0.9700  -22.9260 H   0  0  0  0  0  0  0  0  0  0  0  0
   -2.3930    2.3990  -21.0730 H   0  0  0  0  0  0  0  0  0  0  0  0
   -3.3000    2.1170  -18.7830 H   0  0  0  0  0  0  0  0  0  0  0  0
   -4.7440    0.9520  -17.2090 H   0  0  0  0  0  0  0  0  0  0  0  0
   -7.2940   -2.0590  -18.4310 H   0  0  0  0  0  0  0  0  0  0  0  0
   -7.4940   -1.5740  -21.9550 C   0  0  0  0  0  0  0  0  0  0  0  0
   -7.7860   -0.4000  -22.0750 O   0  0  0  0  0  0  0  0  0  0  0  0
   -7.8470   -2.7140  -22.9040 C   0  0  1  0  0  0  0  0  0  0  0  0
   -7.0440   -2.4800  -24.1950 C   0  0  0  0  0  0  0  0  0  0  0  0
   -7.4620   -3.3750  -25.2560 N   0  0  0  0  0  0  0  0  0  0  0  0
   -6.4950   -3.8430  -26.2330 C   0  0  0  0  0  0  0  0  0  0  0  0
   -6.1680   -2.8070  -27.2600 C   0  0  0  0  0  0  0  0  0  0  0  0
   -5.2800   -1.7860  -27.2480 C   0  0  0  0  0  0  0  0  0  0  0  0
   -5.3790   -1.1550  -28.4700 N   0  3  0  0  0  0  0  0  0  0  0  0
   -6.3200   -1.7680  -29.1950 C   0  0  0  0  0  0  0  0  0  0  0  0
   -6.8380   -2.7670  -28.4700 N   0  0  0  0  0  0  0  0  0  0  0  0
   -7.6800   -3.3140  -28.6670 H   0  0  0  0  0  0  0  0  0  0  0  0
   -6.5710   -1.5380  -30.2140 H   0  0  0  0  0  0  0  0  0  0  0  0
   -4.8600   -0.3240  -28.7310 H   0  0  0  0  0  0  0  0  0  0  0  0
   -4.5880   -1.4340  -26.4910 H   0  0  0  0  0  0  0  0  0  0  0  0
   -6.9440   -4.7190  -26.7180 H   0  0  0  0  0  0  0  0  0  0  0  0
   -5.6040   -4.1800  -25.6900 H   0  0  0  0  0  0  0  0  0  0  0  0
   -8.7700   -3.4150  -25.6380 C   0  0  0  0  0  0  0  0  0  0  0  0
   -9.1220   -3.6610  -26.7850 O   0  0  0  0  0  0  0  0  0  0  0  0
   -9.7340   -3.2010  -24.5270 C   0  0  0  0  0  0  0  0  0  0  0  0
  -11.0630   -3.5400  -24.7530 C   0  0  0  0  0  0  0  0  0  0  0  0
  -11.9910   -3.4440  -23.7330 C   0  0  0  0  0  0  0  0  0  0  0  0
  -11.5960   -2.8790  -22.5210 C   0  0  0  0  0  0  0  0  0  0  0  0
  -12.7900   -2.7320  -21.2610 Cl  0  0  0  0  0  0  0  0  0  0  0  0
  -10.2850   -2.4930  -22.3020 C   0  0  0  0  0  0  0  0  0  0  0  0
   -9.3130   -2.7440  -23.2750 C   0  0  0  0  0  0  0  0  0  0  0  0
  -10.0010   -2.0170  -21.3710 H   0  0  0  0  0  0  0  0  0  0  0  0
  -13.0060   -3.8100  -23.8390 H   0  0  0  0  0  0  0  0  0  0  0  0
  -11.3150   -3.9020  -25.7440 H   0  0  0  0  0  0  0  0  0  0  0  0
   -5.9760   -2.6160  -24.0110 H   0  0  0  0  0  0  0  0  0  0  0  0
   -7.1850   -1.4300  -24.4860 H   0  0  0  0  0  0  0  0  0  0  0  0
   -5.3230   -3.5610  -21.5190 H   0  0  0  0  0  0  0  0  0  0  0  0
   -6.3450   -3.9660  -20.1280 H   0  0  0  0  0  0  0  0  0  0  0  0
   -8.2890   -4.2510  -21.4730 H   0  0  0  0  0  0  0  0  0  0  0  0
   -7.7730   -5.4440  -23.5810 H   0  0  0  0  0  0  0  0  0  0  0  0
   -6.0660   -4.9600  -23.4290 H   0  0  0  0  0  0  0  0  0  0  0  0
   -6.1840   -8.1960  -21.9190 H   0  0  0  0  0  0  0  0  0  0  0  0
   -7.0350   -7.7190  -23.4150 H   0  0  0  0  0  0  0  0  0  0  0  0
   -5.3440   -7.2140  -23.1500 H   0  0  0  0  0  0  0  0  0  0  0  0
  1  2  1  0  0  0  0
  1 59  1  0  0  0  0
  1 60  1  0  0  0  0
  1 61  1  0  0  0  0
  2  3  1  0  0  0  0
  3  4  1  0  0  0  0
  3 57  1  0  0  0  0
  3 58  1  0  0  0  0
  4  5  1  0  0  0  0
  4 25  1  0  0  0  0
  4 56  1  1  0  0  0
  5  6  1  0  0  0  0
  5 54  1  0  0  0  0
  5 55  1  0  0  0  0
  6  7  1  0  0  0  0
  6 23  1  0  0  0  0
  7  8  2  0  0  0  0
  7 16  1  0  0  0  0
  8  9  1  0  0  0  0
  8 22  1  0  0  0  0
  9 10  2  0  0  0  0
 10 11  1  0  0  0  0
 10 21  1  0  0  0  0
 11 12  2  0  0  0  0
 11 16  1  0  0  0  0
 12 13  1  0  0  0  0
 12 20  1  0  0  0  0
 13 14  2  0  0  0  0
 13 19  1  0  0  0  0
 14 15  1  0  0  0  0
 14 18  1  0  0  0  0
 15 16  2  0  0  0  0
 15 17  1  0  0  0  0
 23 24  2  0  0  0  0
 25 23  1  1  0  0  0
 25 26  1  0  0  0  0
 25 48  1  0  0  0  0
 26 27  1  0  0  0  0
 26 52  1  0  0  0  0
 26 53  1  0  0  0  0
 27 28  1  0  0  0  0
 27 40  1  0  0  0  0
 28 29  1  0  0  0  0
 28 38  1  0  0  0  0
 28 39  1  0  0  0  0
 29 30  2  0  0  0  0
 29 33  1  0  0  0  0
 30 31  1  0  0  0  0
 30 37  1  0  0  0  0
 31 32  2  0  0  0  0
 31 36  1  0  0  0  0
 32 33  1  0  0  0  0
 32 35  1  0  0  0  0
 33 34  1  0  0  0  0
 40 41  2  0  0  0  0
 40 42  1  0  0  0  0
 42 43  2  0  0  0  0
 42 48  1  0  0  0  0
 43 44  1  0  0  0  0
 43 51  1  0  0  0  0
 44 45  2  0  0  0  0
 44 50  1  0  0  0  0
 45 46  1  0  0  0  0
 45 47  1  0  0  0  0
 47 48  2  0  0  0  0
 47 49  1  0  0  0  0
M  CHG  1  31   1
M  END
>  <MODEL>
       2

$$$$
best_conformers_55.pdb
 OpenBabel01292518153D

 61 66  0  0  1  0  0  0  0  0999 V2000
   -5.3440   -6.2230  -24.0480 C   0  0  0  0  0  0  0  0  0  0  0  0
   -5.7870   -5.0850  -23.3610 O   0  0  0  0  0  0  0  0  0  0  0  0
   -7.0720   -5.2320  -22.7960 C   0  0  0  0  0  0  0  0  0  0  0  0
   -7.4370   -3.9590  -22.0560 C   0  0  1  0  0  0  0  0  0  0  0  0
   -6.3500   -3.4550  -21.1100 C   0  0  0  0  0  0  0  0  0  0  0  0
   -6.7240   -2.0640  -20.9550 N   0  0  0  0  0  0  0  0  0  0  0  0
   -6.1430   -1.2120  -20.0010 C   0  0  0  0  0  0  0  0  0  0  0  0
   -6.5310   -1.3190  -18.6930 C   0  0  0  0  0  0  0  0  0  0  0  0
   -6.0540   -0.5530  -17.6850 N   0  0  0  0  0  0  0  0  0  0  0  0
   -5.1410    0.3350  -18.0090 C   0  0  0  0  0  0  0  0  0  0  0  0
   -4.6380    0.5290  -19.3280 C   0  0  0  0  0  0  0  0  0  0  0  0
   -3.6460    1.5040  -19.6070 C   0  0  0  0  0  0  0  0  0  0  0  0
   -3.1570    1.6530  -20.8740 C   0  0  0  0  0  0  0  0  0  0  0  0
   -3.6360    0.8410  -21.9260 C   0  0  0  0  0  0  0  0  0  0  0  0
   -4.6040   -0.0990  -21.6870 C   0  0  0  0  0  0  0  0  0  0  0  0
   -5.1390   -0.2710  -20.3740 C   0  0  0  0  0  0  0  0  0  0  0  0
   -4.9740   -0.7000  -22.5130 H   0  0  0  0  0  0  0  0  0  0  0  0
   -3.2320    0.9660  -22.9270 H   0  0  0  0  0  0  0  0  0  0  0  0
   -2.3910    2.3960  -21.0790 H   0  0  0  0  0  0  0  0  0  0  0  0
   -3.2900    2.1210  -18.7870 H   0  0  0  0  0  0  0  0  0  0  0  0
   -4.7410    0.9530  -17.2050 H   0  0  0  0  0  0  0  0  0  0  0  0
   -7.2940   -2.0530  -18.4350 H   0  0  0  0  0  0  0  0  0  0  0  0
   -7.5100   -1.5670  -21.9660 C   0  0  0  0  0  0  0  0  0  0  0  0
   -7.8070   -0.3920  -22.0890 O   0  0  0  0  0  0  0  0  0  0  0  0
   -7.8690   -2.7090  -22.9130 C   0  0  1  0  0  0  0  0  0  0  0  0
   -7.0630   -2.4810  -24.2040 C   0  0  0  0  0  0  0  0  0  0  0  0
   -7.5000   -3.3560  -25.2840 N   0  0  0  0  0  0  0  0  0  0  0  0
   -6.5500   -3.6920  -26.3330 C   0  0  0  0  0  0  0  0  0  0  0  0
   -6.3890   -2.5990  -27.3420 C   0  0  0  0  0  0  0  0  0  0  0  0
   -5.6370   -1.4730  -27.3420 C   0  0  0  0  0  0  0  0  0  0  0  0
   -5.8940   -0.8170  -28.5310 N   0  3  0  0  0  0  0  0  0  0  0  0
   -6.7880   -1.5300  -29.2250 C   0  0  0  0  0  0  0  0  0  0  0  0
   -7.1170   -2.6150  -28.5170 N   0  0  0  0  0  0  0  0  0  0  0  0
   -7.8830   -3.2690  -28.6940 H   0  0  0  0  0  0  0  0  0  0  0  0
   -7.1410   -1.3030  -30.2130 H   0  0  0  0  0  0  0  0  0  0  0  0
   -5.5040    0.0790  -28.7960 H   0  0  0  0  0  0  0  0  0  0  0  0
   -4.9520   -1.0550  -26.6110 H   0  0  0  0  0  0  0  0  0  0  0  0
   -6.9220   -4.6010  -26.8230 H   0  0  0  0  0  0  0  0  0  0  0  0
   -5.6040   -3.9390  -25.8440 H   0  0  0  0  0  0  0  0  0  0  0  0
   -8.8200   -3.4210  -25.6310 C   0  0  0  0  0  0  0  0  0  0  0  0
   -9.2010   -3.7070  -26.7660 O   0  0  0  0  0  0  0  0  0  0  0  0
   -9.7750   -3.1870  -24.5180 C   0  0  0  0  0  0  0  0  0  0  0  0
  -11.1060   -3.5280  -24.7340 C   0  0  0  0  0  0  0  0  0  0  0  0
  -12.0260   -3.4160  -23.7050 C   0  0  0  0  0  0  0  0  0  0  0  0
  -11.6240   -2.8390  -22.5050 C   0  0  0  0  0  0  0  0  0  0  0  0
  -12.8210   -2.6510  -21.2610 Cl  0  0  0  0  0  0  0  0  0  0  0  0
  -10.3070   -2.4680  -22.2940 C   0  0  0  0  0  0  0  0  0  0  0  0
   -9.3410   -2.7330  -23.2720 C   0  0  0  0  0  0  0  0  0  0  0  0
  -10.0050   -2.0050  -21.3670 H   0  0  0  0  0  0  0  0  0  0  0  0
  -13.0410   -3.7780  -23.7950 H   0  0  0  0  0  0  0  0  0  0  0  0
  -11.3870   -3.8930  -25.7180 H   0  0  0  0  0  0  0  0  0  0  0  0
   -6.0010   -2.6580  -24.0250 H   0  0  0  0  0  0  0  0  0  0  0  0
   -7.1650   -1.4240  -24.4850 H   0  0  0  0  0  0  0  0  0  0  0  0
   -5.3520   -3.5600  -21.5560 H   0  0  0  0  0  0  0  0  0  0  0  0
   -6.3400   -3.9510  -20.1330 H   0  0  0  0  0  0  0  0  0  0  0  0
   -8.3160   -4.1800  -21.4450 H   0  0  0  0  0  0  0  0  0  0  0  0
   -7.0900   -6.0890  -22.1000 H   0  0  0  0  0  0  0  0  0  0  0  0
   -7.8230   -5.4180  -23.5750 H   0  0  0  0  0  0  0  0  0  0  0  0
   -4.3530   -5.9980  -24.4560 H   0  0  0  0  0  0  0  0  0  0  0  0
   -6.0230   -6.4880  -24.8750 H   0  0  0  0  0  0  0  0  0  0  0  0
   -5.2560   -7.0890  -23.3750 H   0  0  0  0  0  0  0  0  0  0  0  0
  1  2  1  0  0  0  0
  1 59  1  0  0  0  0
  1 60  1  0  0  0  0
  1 61  1  0  0  0  0
  2  3  1  0  0  0  0
  3  4  1  0  0  0  0
  3 57  1  0  0  0  0
  3 58  1  0  0  0  0
  4  5  1  0  0  0  0
  4 25  1  0  0  0  0
  4 56  1  1  0  0  0
  5  6  1  0  0  0  0
  5 54  1  0  0  0  0
  5 55  1  0  0  0  0
  6  7  1  0  0  0  0
  6 23  1  0  0  0  0
  7  8  2  0  0  0  0
  7 16  1  0  0  0  0
  8  9  1  0  0  0  0
  8 22  1  0  0  0  0
  9 10  2  0  0  0  0
 10 11  1  0  0  0  0
 10 21  1  0  0  0  0
 11 12  2  0  0  0  0
 11 16  1  0  0  0  0
 12 13  1  0  0  0  0
 12 20  1  0  0  0  0
 13 14  2  0  0  0  0
 13 19  1  0  0  0  0
 14 15  1  0  0  0  0
 14 18  1  0  0  0  0
 15 16  2  0  0  0  0
 15 17  1  0  0  0  0
 23 24  2  0  0  0  0
 25 23  1  1  0  0  0
 25 26  1  0  0  0  0
 25 48  1  0  0  0  0
 26 27  1  0  0  0  0
 26 52  1  0  0  0  0
 26 53  1  0  0  0  0
 27 28  1  0  0  0  0
 27 40  1  0  0  0  0
 28 29  1  0  0  0  0
 28 38  1  0  0  0  0
 28 39  1  0  0  0  0
 29 30  2  0  0  0  0
 29 33  1  0  0  0  0
 30 31  1  0  0  0  0
 30 37  1  0  0  0  0
 31 32  2  0  0  0  0
 31 36  1  0  0  0  0
 32 33  1  0  0  0  0
 32 35  1  0  0  0  0
 33 34  1  0  0  0  0
 40 41  2  0  0  0  0
 40 42  1  0  0  0  0
 42 43  2  0  0  0  0
 42 48  1  0  0  0  0
 43 44  1  0  0  0  0
 43 51  1  0  0  0  0
 44 45  2  0  0  0  0
 44 50  1  0  0  0  0
 45 46  1  0  0  0  0
 45 47  1  0  0  0  0
 47 48  2  0  0  0  0
 47 49  1  0  0  0  0
M  CHG  1  31   1
M  END
>  <MODEL>
       3

$$$$
