best_conformers_91.pdb
 OpenBabel01292518153D

 66 71  0  0  1  0  0  0  0  0999 V2000
   -8.7630   -1.2670  -29.2680 C   0  0  0  0  0  0  0  0  0  0  0  0
   -8.7050   -0.6640  -27.9510 N   0  0  0  0  0  0  0  0  0  0  0  0
   -7.7350   -1.0270  -27.0830 C   0  0  0  0  0  0  0  0  0  0  0  0
   -6.9150   -1.9010  -27.3290 O   0  0  0  0  0  0  0  0  0  0  0  0
   -7.7570   -0.3120  -25.7340 C   0  0  0  0  0  0  0  0  0  0  0  0
   -8.5680   -1.0530  -24.7970 N   0  0  0  0  0  0  0  0  0  0  0  0
   -8.0550   -2.3070  -24.3130 C   0  0  0  0  0  0  0  0  0  0  0  0
   -8.3810   -2.5030  -22.8150 C   0  0  2  0  0  0  0  0  0  0  0  0
   -7.8540   -1.3040  -21.9640 C   0  0  0  0  0  0  0  0  0  0  0  0
   -8.1760   -0.1410  -22.0610 O   0  0  0  0  0  0  0  0  0  0  0  0
   -6.9260   -1.7720  -21.0540 N   0  0  0  0  0  0  0  0  0  0  0  0
   -6.2700   -0.9700  -20.0770 C   0  0  0  0  0  0  0  0  0  0  0  0
   -6.6140   -1.1230  -18.7540 C   0  0  0  0  0  0  0  0  0  0  0  0
   -6.0800   -0.4300  -17.7180 N   0  0  0  0  0  0  0  0  0  0  0  0
   -5.1370    0.4340  -18.0110 C   0  0  0  0  0  0  0  0  0  0  0  0
   -4.6390    0.6570  -19.3230 C   0  0  0  0  0  0  0  0  0  0  0  0
   -3.6000    1.5970  -19.5490 C   0  0  0  0  0  0  0  0  0  0  0  0
   -3.0620    1.7450  -20.7960 C   0  0  0  0  0  0  0  0  0  0  0  0
   -3.5480    0.9640  -21.8680 C   0  0  0  0  0  0  0  0  0  0  0  0
   -4.5840    0.0770  -21.6820 C   0  0  0  0  0  0  0  0  0  0  0  0
   -5.1780   -0.0880  -20.3990 C   0  0  0  0  0  0  0  0  0  0  0  0
   -4.9510   -0.5030  -22.5230 H   0  0  0  0  0  0  0  0  0  0  0  0
   -3.0950    1.0750  -22.8490 H   0  0  0  0  0  0  0  0  0  0  0  0
   -2.2620    2.4630  -20.9650 H   0  0  0  0  0  0  0  0  0  0  0  0
   -3.2510    2.1830  -18.7030 H   0  0  0  0  0  0  0  0  0  0  0  0
   -4.6960    0.9970  -17.1880 H   0  0  0  0  0  0  0  0  0  0  0  0
   -7.3910   -1.8350  -18.4790 H   0  0  0  0  0  0  0  0  0  0  0  0
   -6.6860   -3.1890  -21.1160 C   0  0  0  0  0  0  0  0  0  0  0  0
   -7.5670   -3.7160  -22.2680 C   0  0  2  0  0  0  0  0  0  0  0  0
   -6.5580   -4.3690  -23.2630 C   0  0  0  0  0  0  0  0  0  0  0  0
   -6.0060   -5.5750  -22.6900 N   0  0  0  0  0  0  0  0  0  0  0  0
   -6.6660   -6.7600  -22.8700 C   0  0  0  0  0  0  0  0  0  0  0  0
   -7.9860   -6.8090  -23.3760 C   0  0  0  0  0  0  0  0  0  0  0  0
   -8.6480   -7.9450  -23.4880 N   0  0  0  0  0  0  0  0  0  0  0  0
   -7.9800   -9.0380  -23.1240 C   0  0  0  0  0  0  0  0  0  0  0  0
   -6.6670   -9.0060  -22.6590 C   0  0  0  0  0  0  0  0  0  0  0  0
   -5.9980   -7.8650  -22.5290 N   0  0  0  0  0  0  0  0  0  0  0  0
   -6.1560   -9.9200  -22.3560 H   0  0  0  0  0  0  0  0  0  0  0  0
   -8.5410   -9.9650  -23.1350 H   0  0  0  0  0  0  0  0  0  0  0  0
   -8.5130   -5.8990  -23.6490 H   0  0  0  0  0  0  0  0  0  0  0  0
   -5.0020   -5.6950  -22.6660 H   0  0  0  0  0  0  0  0  0  0  0  0
   -7.0120   -4.5860  -24.2390 H   0  0  0  0  0  0  0  0  0  0  0  0
   -5.7300   -3.6700  -23.4450 H   0  0  0  0  0  0  0  0  0  0  0  0
   -8.2530   -4.4950  -21.9190 H   0  0  0  0  0  0  0  0  0  0  0  0
   -5.6290   -3.3730  -21.3420 H   0  0  0  0  0  0  0  0  0  0  0  0
   -6.8620   -3.6660  -20.1540 H   0  0  0  0  0  0  0  0  0  0  0  0
   -9.9300   -2.5260  -22.7940 C   0  0  0  0  0  0  0  0  0  0  0  0
  -10.7100   -3.2280  -21.8610 C   0  0  0  0  0  0  0  0  0  0  0  0
  -12.0940   -3.0560  -21.8450 C   0  0  0  0  0  0  0  0  0  0  0  0
  -13.0970   -3.7330  -20.5920 Cl  0  0  0  0  0  0  0  0  0  0  0  0
  -12.7520   -2.2670  -22.7820 C   0  0  0  0  0  0  0  0  0  0  0  0
  -12.0010   -1.5840  -23.7110 C   0  0  0  0  0  0  0  0  0  0  0  0
  -10.6120   -1.6750  -23.6950 C   0  0  0  0  0  0  0  0  0  0  0  0
   -9.8790   -0.7510  -24.6250 C   0  0  0  0  0  0  0  0  0  0  0  0
  -10.4290    0.1950  -25.1790 O   0  0  0  0  0  0  0  0  0  0  0  0
  -12.4660   -0.9200  -24.4310 H   0  0  0  0  0  0  0  0  0  0  0  0
  -13.8340   -2.1830  -22.7430 H   0  0  0  0  0  0  0  0  0  0  0  0
  -10.2390   -3.8860  -21.1380 H   0  0  0  0  0  0  0  0  0  0  0  0
   -8.5300   -3.1360  -24.8670 H   0  0  0  0  0  0  0  0  0  0  0  0
   -6.9830   -2.3110  -24.5020 H   0  0  0  0  0  0  0  0  0  0  0  0
   -6.7290   -0.3070  -25.3570 H   0  0  0  0  0  0  0  0  0  0  0  0
   -8.1390    0.7080  -25.7900 H   0  0  0  0  0  0  0  0  0  0  0  0
   -9.4430   -0.0480  -27.6420 H   0  0  0  0  0  0  0  0  0  0  0  0
   -7.8650   -1.0170  -29.8420 H   0  0  0  0  0  0  0  0  0  0  0  0
   -9.6400   -0.8940  -29.8010 H   0  0  0  0  0  0  0  0  0  0  0  0
   -8.8220   -2.3570  -29.1940 H   0  0  0  0  0  0  0  0  0  0  0  0
  1  2  1  0  0  0  0
  1 64  1  0  0  0  0
  1 65  1  0  0  0  0
  1 66  1  0  0  0  0
  2  3  1  0  0  0  0
  2 63  1  0  0  0  0
  3  4  2  0  0  0  0
  3  5  1  0  0  0  0
  5  6  1  0  0  0  0
  5 61  1  0  0  0  0
  5 62  1  0  0  0  0
  6  7  1  0  0  0  0
  6 54  1  0  0  0  0
  7  8  1  0  0  0  0
  7 59  1  0  0  0  0
  7 60  1  0  0  0  0
  8  9  1  1  0  0  0
  8 29  1  0  0  0  0
  8 47  1  0  0  0  0
  9 10  2  0  0  0  0
  9 11  1  0  0  0  0
 11 12  1  0  0  0  0
 11 28  1  0  0  0  0
 12 13  2  0  0  0  0
 12 21  1  0  0  0  0
 13 14  1  0  0  0  0
 13 27  1  0  0  0  0
 14 15  2  0  0  0  0
 15 16  1  0  0  0  0
 15 26  1  0  0  0  0
 16 17  2  0  0  0  0
 16 21  1  0  0  0  0
 17 18  1  0  0  0  0
 17 25  1  0  0  0  0
 18 19  2  0  0  0  0
 18 24  1  0  0  0  0
 19 20  1  0  0  0  0
 19 23  1  0  0  0  0
 20 21  2  0  0  0  0
 20 22  1  0  0  0  0
 28 29  1  0  0  0  0
 28 45  1  0  0  0  0
 28 46  1  0  0  0  0
 29 30  1  0  0  0  0
 29 44  1  1  0  0  0
 30 31  1  0  0  0  0
 30 42  1  0  0  0  0
 30 43  1  0  0  0  0
 31 32  1  0  0  0  0
 31 41  1  0  0  0  0
 32 33  2  0  0  0  0
 32 37  1  0  0  0  0
 33 34  1  0  0  0  0
 33 40  1  0  0  0  0
 34 35  2  0  0  0  0
 35 36  1  0  0  0  0
 35 39  1  0  0  0  0
 36 37  2  0  0  0  0
 36 38  1  0  0  0  0
 47 48  2  0  0  0  0
 47 53  1  0  0  0  0
 48 49  1  0  0  0  0
 48 58  1  0  0  0  0
 49 50  1  0  0  0  0
 49 51  2  0  0  0  0
 51 52  1  0  0  0  0
 51 57  1  0  0  0  0
 52 53  2  0  0  0  0
 52 56  1  0  0  0  0
 53 54  1  0  0  0  0
 54 55  2  0  0  0  0
M  END
>  <MODEL>
       1

$$$$
