best_conformers_14.pdb
 OpenBabel01292518153D

 73 78  0  0  1  0  0  0  0  0999 V2000
   -7.2670   -5.0550  -22.9230 C   0  0  0  0  0  0  0  0  0  0  0  0
   -7.7180   -3.8710  -22.0620 C   0  0  1  0  0  0  0  0  0  0  0  0
   -6.6060   -3.4000  -21.1060 C   0  0  0  0  0  0  0  0  0  0  0  0
   -6.8180   -1.9800  -20.9770 N   0  0  0  0  0  0  0  0  0  0  0  0
   -6.1800   -1.1800  -20.0060 C   0  0  0  0  0  0  0  0  0  0  0  0
   -6.5320   -1.3000  -18.6870 C   0  0  0  0  0  0  0  0  0  0  0  0
   -6.0260   -0.5400  -17.6860 N   0  0  0  0  0  0  0  0  0  0  0  0
   -5.1150    0.3490  -18.0150 C   0  0  0  0  0  0  0  0  0  0  0  0
   -4.6310    0.5430  -19.3410 C   0  0  0  0  0  0  0  0  0  0  0  0
   -3.6350    1.5120  -19.6430 C   0  0  0  0  0  0  0  0  0  0  0  0
   -3.1660    1.6580  -20.9200 C   0  0  0  0  0  0  0  0  0  0  0  0
   -3.6630    0.8390  -21.9600 C   0  0  0  0  0  0  0  0  0  0  0  0
   -4.6290   -0.1010  -21.6950 C   0  0  0  0  0  0  0  0  0  0  0  0
   -5.1590   -0.2570  -20.3800 C   0  0  0  0  0  0  0  0  0  0  0  0
   -4.9950   -0.7360  -22.4970 H   0  0  0  0  0  0  0  0  0  0  0  0
   -3.2810    0.9620  -22.9720 H   0  0  0  0  0  0  0  0  0  0  0  0
   -2.4130    2.4090  -21.1440 H   0  0  0  0  0  0  0  0  0  0  0  0
   -3.2610    2.1350  -18.8360 H   0  0  0  0  0  0  0  0  0  0  0  0
   -4.7020    0.9640  -17.2140 H   0  0  0  0  0  0  0  0  0  0  0  0
   -7.2930   -2.0230  -18.3930 H   0  0  0  0  0  0  0  0  0  0  0  0
   -7.6210   -1.4430  -21.9440 C   0  0  0  0  0  0  0  0  0  0  0  0
   -7.8510   -0.2570  -22.0820 O   0  0  0  0  0  0  0  0  0  0  0  0
   -8.1870   -2.5850  -22.8070 C   0  0  1  0  0  0  0  0  0  0  0  0
   -7.5760   -2.5040  -24.2280 C   0  0  0  0  0  0  0  0  0  0  0  0
   -8.0750   -1.3730  -24.9910 N   0  0  0  0  0  0  0  0  0  0  0  0
   -7.1790   -0.6910  -25.9030 C   0  0  0  0  0  0  0  0  0  0  0  0
   -6.4120    0.4680  -25.2670 C   0  0  0  0  0  0  0  0  0  0  0  0
   -7.2930    1.5960  -24.8260 N   0  3  0  0  0  0  0  0  0  0  0  0
   -6.6070    2.4300  -23.7720 C   0  0  0  0  0  0  0  0  0  0  0  0
   -7.2810    3.7850  -23.6010 C   0  0  0  0  0  0  0  0  0  0  0  0
   -7.1920    4.5910  -24.8350 N   0  0  0  0  0  0  0  0  0  0  0  0
   -8.3730    5.7900  -24.9870 S   0  0  0  0  0  0  0  0  0  0  0  0
   -7.9510    6.6620  -26.0700 O   0  0  0  0  0  0  0  0  0  0  0  0
   -9.6930    5.1660  -25.0170 O   0  0  0  0  0  0  0  0  0  0  0  0
   -8.2790    6.7170  -23.4730 C   0  0  0  0  0  0  0  0  0  0  0  0
   -8.9710    7.5490  -23.6160 H   0  0  0  0  0  0  0  0  0  0  0  0
   -8.6140    6.1090  -22.6280 H   0  0  0  0  0  0  0  0  0  0  0  0
   -7.2660    7.0970  -23.3170 H   0  0  0  0  0  0  0  0  0  0  0  0
   -7.0480    3.7810  -26.0630 C   0  0  0  0  0  0  0  0  0  0  0  0
   -7.8080    2.4620  -25.9560 C   0  0  0  0  0  0  0  0  0  0  0  0
   -7.7530    1.9030  -26.8920 H   0  0  0  0  0  0  0  0  0  0  0  0
   -8.8650    2.6580  -25.7570 H   0  0  0  0  0  0  0  0  0  0  0  0
   -5.9800    3.5940  -26.2370 H   0  0  0  0  0  0  0  0  0  0  0  0
   -7.4100    4.3660  -26.9080 H   0  0  0  0  0  0  0  0  0  0  0  0
   -8.3270    3.6280  -23.3030 H   0  0  0  0  0  0  0  0  0  0  0  0
   -6.7710    4.3300  -22.8010 H   0  0  0  0  0  0  0  0  0  0  0  0
   -5.5640    2.5760  -24.0710 H   0  0  0  0  0  0  0  0  0  0  0  0
   -6.6250    1.8670  -22.8320 H   0  0  0  0  0  0  0  0  0  0  0  0
   -8.1270    1.1860  -24.3830 H   0  0  0  0  0  0  0  0  0  0  0  0
   -5.8620    0.1120  -24.3830 H   0  0  0  0  0  0  0  0  0  0  0  0
   -5.6630    0.8400  -25.9770 H   0  0  0  0  0  0  0  0  0  0  0  0
   -6.4640   -1.4260  -26.2830 H   0  0  0  0  0  0  0  0  0  0  0  0
   -7.7790   -0.3370  -26.7470 H   0  0  0  0  0  0  0  0  0  0  0  0
   -9.3280   -0.8860  -24.8350 C   0  0  0  0  0  0  0  0  0  0  0  0
   -9.6920    0.1650  -25.3640 O   0  0  0  0  0  0  0  0  0  0  0  0
  -10.2360   -1.6610  -23.9510 C   0  0  0  0  0  0  0  0  0  0  0  0
  -11.6130   -1.5050  -24.0940 C   0  0  0  0  0  0  0  0  0  0  0  0
  -12.4570   -2.0030  -23.1250 C   0  0  0  0  0  0  0  0  0  0  0  0
  -11.9090   -2.6340  -22.0060 C   0  0  0  0  0  0  0  0  0  0  0  0
  -13.0050   -3.1600  -20.7610 Cl  0  0  0  0  0  0  0  0  0  0  0  0
  -10.5430   -2.8100  -21.8670 C   0  0  0  0  0  0  0  0  0  0  0  0
   -9.6910   -2.3970  -22.8950 C   0  0  0  0  0  0  0  0  0  0  0  0
  -10.1230   -3.2300  -20.9600 H   0  0  0  0  0  0  0  0  0  0  0  0
  -13.5330   -1.8750  -23.1820 H   0  0  0  0  0  0  0  0  0  0  0  0
  -12.0140   -1.0100  -24.9740 H   0  0  0  0  0  0  0  0  0  0  0  0
   -6.4870   -2.4110  -24.1380 H   0  0  0  0  0  0  0  0  0  0  0  0
   -7.7990   -3.4310  -24.7670 H   0  0  0  0  0  0  0  0  0  0  0  0
   -5.6180   -3.6110  -21.5310 H   0  0  0  0  0  0  0  0  0  0  0  0
   -6.6320   -3.8640  -20.1200 H   0  0  0  0  0  0  0  0  0  0  0  0
   -8.5760   -4.2060  -21.4850 H   0  0  0  0  0  0  0  0  0  0  0  0
   -7.0090   -5.9170  -22.3000 H   0  0  0  0  0  0  0  0  0  0  0  0
   -8.0430   -5.3820  -23.6250 H   0  0  0  0  0  0  0  0  0  0  0  0
   -6.3740   -4.8010  -23.5060 H   0  0  0  0  0  0  0  0  0  0  0  0
  1  2  1  0  0  0  0
  1 71  1  0  0  0  0
  1 72  1  0  0  0  0
  1 73  1  0  0  0  0
  2  3  1  0  0  0  0
  2 23  1  0  0  0  0
  2 70  1  1  0  0  0
  3  4  1  0  0  0  0
  3 68  1  0  0  0  0
  3 69  1  0  0  0  0
  4  5  1  0  0  0  0
  4 21  1  0  0  0  0
  5  6  2  0  0  0  0
  5 14  1  0  0  0  0
  6  7  1  0  0  0  0
  6 20  1  0  0  0  0
  7  8  2  0  0  0  0
  8  9  1  0  0  0  0
  8 19  1  0  0  0  0
  9 10  2  0  0  0  0
  9 14  1  0  0  0  0
 10 11  1  0  0  0  0
 10 18  1  0  0  0  0
 11 12  2  0  0  0  0
 11 17  1  0  0  0  0
 12 13  1  0  0  0  0
 12 16  1  0  0  0  0
 13 14  2  0  0  0  0
 13 15  1  0  0  0  0
 21 22  2  0  0  0  0
 23 21  1  1  0  0  0
 23 24  1  0  0  0  0
 23 62  1  0  0  0  0
 24 25  1  0  0  0  0
 24 66  1  0  0  0  0
 24 67  1  0  0  0  0
 25 26  1  0  0  0  0
 25 54  1  0  0  0  0
 26 27  1  0  0  0  0
 26 52  1  0  0  0  0
 26 53  1  0  0  0  0
 27 28  1  0  0  0  0
 27 50  1  0  0  0  0
 27 51  1  0  0  0  0
 28 29  1  0  0  0  0
 28 40  1  0  0  0  0
 28 49  1  0  0  0  0
 29 30  1  0  0  0  0
 29 47  1  0  0  0  0
 29 48  1  0  0  0  0
 30 31  1  0  0  0  0
 30 45  1  0  0  0  0
 30 46  1  0  0  0  0
 31 32  1  0  0  0  0
 31 39  1  0  0  0  0
 32 33  2  0  0  0  0
 32 34  2  0  0  0  0
 32 35  1  0  0  0  0
 35 36  1  0  0  0  0
 35 37  1  0  0  0  0
 35 38  1  0  0  0  0
 39 40  1  0  0  0  0
 39 43  1  0  0  0  0
 39 44  1  0  0  0  0
 40 41  1  0  0  0  0
 40 42  1  0  0  0  0
 54 55  2  0  0  0  0
 54 56  1  0  0  0  0
 56 57  2  0  0  0  0
 56 62  1  0  0  0  0
 57 58  1  0  0  0  0
 57 65  1  0  0  0  0
 58 59  2  0  0  0  0
 58 64  1  0  0  0  0
 59 60  1  0  0  0  0
 59 61  1  0  0  0  0
 61 62  2  0  0  0  0
 61 63  1  0  0  0  0
M  CHG  1  28   1
M  END
>  <MODEL>
       1

$$$$
best_conformers_14.pdb
 OpenBabel01292518153D

 73 78  0  0  1  0  0  0  0  0999 V2000
   -7.0350   -4.8390  -23.2930 C   0  0  0  0  0  0  0  0  0  0  0  0
   -7.5600   -3.8320  -22.2600 C   0  0  1  0  0  0  0  0  0  0  0  0
   -6.4440   -3.3390  -21.3100 C   0  0  0  0  0  0  0  0  0  0  0  0
   -6.8410   -1.9870  -20.9740 N   0  0  0  0  0  0  0  0  0  0  0  0
   -6.1870   -1.1810  -20.0010 C   0  0  0  0  0  0  0  0  0  0  0  0
   -6.5350   -1.2850  -18.6800 C   0  0  0  0  0  0  0  0  0  0  0  0
   -6.0110   -0.5320  -17.6810 N   0  0  0  0  0  0  0  0  0  0  0  0
   -5.1020    0.3570  -18.0120 C   0  0  0  0  0  0  0  0  0  0  0  0
   -4.6240    0.5570  -19.3390 C   0  0  0  0  0  0  0  0  0  0  0  0
   -3.6360    1.5310  -19.6530 C   0  0  0  0  0  0  0  0  0  0  0  0
   -3.1920    1.6870  -20.9390 C   0  0  0  0  0  0  0  0  0  0  0  0
   -3.7010    0.8660  -21.9690 C   0  0  0  0  0  0  0  0  0  0  0  0
   -4.6540   -0.0870  -21.6900 C   0  0  0  0  0  0  0  0  0  0  0  0
   -5.1660   -0.2470  -20.3720 C   0  0  0  0  0  0  0  0  0  0  0  0
   -5.0230   -0.7300  -22.4840 H   0  0  0  0  0  0  0  0  0  0  0  0
   -3.3450    1.0020  -22.9870 H   0  0  0  0  0  0  0  0  0  0  0  0
   -2.4510    2.4480  -21.1740 H   0  0  0  0  0  0  0  0  0  0  0  0
   -3.2510    2.1540  -18.8510 H   0  0  0  0  0  0  0  0  0  0  0  0
   -4.7010    0.9740  -17.2070 H   0  0  0  0  0  0  0  0  0  0  0  0
   -7.2900   -2.0070  -18.3710 H   0  0  0  0  0  0  0  0  0  0  0  0
   -7.8100   -1.4640  -21.7950 C   0  0  0  0  0  0  0  0  0  0  0  0
   -8.2260   -0.3210  -21.7220 O   0  0  0  0  0  0  0  0  0  0  0  0
   -8.2580   -2.5480  -22.8080 C   0  0  1  0  0  0  0  0  0  0  0  0
   -7.7290   -2.1740  -24.2230 C   0  0  0  0  0  0  0  0  0  0  0  0
   -8.3960   -1.0100  -24.7770 N   0  0  0  0  0  0  0  0  0  0  0  0
   -7.6120   -0.0820  -25.5790 C   0  0  0  0  0  0  0  0  0  0  0  0
   -6.8810    0.9740  -24.7490 C   0  0  0  0  0  0  0  0  0  0  0  0
   -7.8210    1.9570  -24.0960 N   0  3  0  0  0  0  0  0  0  0  0  0
   -8.3070    3.0580  -25.0250 C   0  0  0  0  0  0  0  0  0  0  0  0
   -7.2440    4.1100  -25.3460 C   0  0  0  0  0  0  0  0  0  0  0  0
   -6.6740    4.6950  -24.1150 N   0  0  0  0  0  0  0  0  0  0  0  0
   -5.4390    5.8390  -24.4340 S   0  0  0  0  0  0  0  0  0  0  0  0
   -5.0510    6.4180  -23.1610 O   0  0  0  0  0  0  0  0  0  0  0  0
   -4.4340    5.2140  -25.2850 O   0  0  0  0  0  0  0  0  0  0  0  0
   -6.1780    7.1530  -25.3850 C   0  0  0  0  0  0  0  0  0  0  0  0
   -7.0790    7.5040  -24.8810 H   0  0  0  0  0  0  0  0  0  0  0  0
   -6.3730    6.8030  -26.4010 H   0  0  0  0  0  0  0  0  0  0  0  0
   -5.4300    7.9530  -25.4140 H   0  0  0  0  0  0  0  0  0  0  0  0
   -6.1440    3.6320  -23.2170 C   0  0  0  0  0  0  0  0  0  0  0  0
   -7.2270    2.6170  -22.8720 C   0  0  0  0  0  0  0  0  0  0  0  0
   -8.0440    3.0990  -22.3290 H   0  0  0  0  0  0  0  0  0  0  0  0
   -6.8080    1.8310  -22.2440 H   0  0  0  0  0  0  0  0  0  0  0  0
   -5.2990    3.1090  -23.6950 H   0  0  0  0  0  0  0  0  0  0  0  0
   -5.7830    4.1050  -22.3000 H   0  0  0  0  0  0  0  0  0  0  0  0
   -6.4510    3.6770  -25.9720 H   0  0  0  0  0  0  0  0  0  0  0  0
   -7.7290    4.9090  -25.9120 H   0  0  0  0  0  0  0  0  0  0  0  0
   -8.6530    2.5990  -25.9510 H   0  0  0  0  0  0  0  0  0  0  0  0
   -9.1660    3.5350  -24.5470 H   0  0  0  0  0  0  0  0  0  0  0  0
   -8.6380    1.4080  -23.7770 H   0  0  0  0  0  0  0  0  0  0  0  0
   -6.1800    1.5180  -25.3870 H   0  0  0  0  0  0  0  0  0  0  0  0
   -6.3040    0.4850  -23.9540 H   0  0  0  0  0  0  0  0  0  0  0  0
   -8.2940    0.3890  -26.2870 H   0  0  0  0  0  0  0  0  0  0  0  0
   -6.8640   -0.6470  -26.1500 H   0  0  0  0  0  0  0  0  0  0  0  0
   -9.7410   -0.8220  -24.6450 C   0  0  0  0  0  0  0  0  0  0  0  0
  -10.3240    0.1380  -25.1380 O   0  0  0  0  0  0  0  0  0  0  0  0
  -10.4700   -1.8260  -23.7900 C   0  0  0  0  0  0  0  0  0  0  0  0
  -11.8620   -1.8540  -23.8530 C   0  0  0  0  0  0  0  0  0  0  0  0
  -12.5850   -2.5250  -22.8950 C   0  0  0  0  0  0  0  0  0  0  0  0
  -11.9170   -3.1210  -21.8300 C   0  0  0  0  0  0  0  0  0  0  0  0
  -12.9730   -3.6510  -20.5420 Cl  0  0  0  0  0  0  0  0  0  0  0  0
  -10.5290   -3.1980  -21.8060 C   0  0  0  0  0  0  0  0  0  0  0  0
   -9.7850   -2.5980  -22.8420 C   0  0  0  0  0  0  0  0  0  0  0  0
  -10.0180   -3.6610  -20.9670 H   0  0  0  0  0  0  0  0  0  0  0  0
  -13.6680   -2.5410  -22.8880 H   0  0  0  0  0  0  0  0  0  0  0  0
  -12.3700   -1.2760  -24.6130 H   0  0  0  0  0  0  0  0  0  0  0  0
   -6.6570   -1.9500  -24.1560 H   0  0  0  0  0  0  0  0  0  0  0  0
   -7.8550   -3.0430  -24.8890 H   0  0  0  0  0  0  0  0  0  0  0  0
   -5.4610   -3.3660  -21.8110 H   0  0  0  0  0  0  0  0  0  0  0  0
   -6.3570   -3.9490  -20.4040 H   0  0  0  0  0  0  0  0  0  0  0  0
   -8.3190   -4.3430  -21.6640 H   0  0  0  0  0  0  0  0  0  0  0  0
   -6.6310   -5.7290  -22.7940 H   0  0  0  0  0  0  0  0  0  0  0  0
   -6.2260   -4.4110  -23.9010 H   0  0  0  0  0  0  0  0  0  0  0  0
   -7.8250   -5.1720  -23.9770 H   0  0  0  0  0  0  0  0  0  0  0  0
  1  2  1  0  0  0  0
  1 71  1  0  0  0  0
  1 72  1  0  0  0  0
  1 73  1  0  0  0  0
  2  3  1  0  0  0  0
  2 23  1  0  0  0  0
  2 70  1  1  0  0  0
  3  4  1  0  0  0  0
  3 68  1  0  0  0  0
  3 69  1  0  0  0  0
  4  5  1  0  0  0  0
  4 21  1  0  0  0  0
  5  6  2  0  0  0  0
  5 14  1  0  0  0  0
  6  7  1  0  0  0  0
  6 20  1  0  0  0  0
  7  8  2  0  0  0  0
  8  9  1  0  0  0  0
  8 19  1  0  0  0  0
  9 10  2  0  0  0  0
  9 14  1  0  0  0  0
 10 11  1  0  0  0  0
 10 18  1  0  0  0  0
 11 12  2  0  0  0  0
 11 17  1  0  0  0  0
 12 13  1  0  0  0  0
 12 16  1  0  0  0  0
 13 14  2  0  0  0  0
 13 15  1  0  0  0  0
 21 22  2  0  0  0  0
 23 21  1  1  0  0  0
 23 24  1  0  0  0  0
 23 62  1  0  0  0  0
 24 25  1  0  0  0  0
 24 66  1  0  0  0  0
 24 67  1  0  0  0  0
 25 26  1  0  0  0  0
 25 54  1  0  0  0  0
 26 27  1  0  0  0  0
 26 52  1  0  0  0  0
 26 53  1  0  0  0  0
 27 28  1  0  0  0  0
 27 50  1  0  0  0  0
 27 51  1  0  0  0  0
 28 29  1  0  0  0  0
 28 40  1  0  0  0  0
 28 49  1  0  0  0  0
 29 30  1  0  0  0  0
 29 47  1  0  0  0  0
 29 48  1  0  0  0  0
 30 31  1  0  0  0  0
 30 45  1  0  0  0  0
 30 46  1  0  0  0  0
 31 32  1  0  0  0  0
 31 39  1  0  0  0  0
 32 33  2  0  0  0  0
 32 34  2  0  0  0  0
 32 35  1  0  0  0  0
 35 36  1  0  0  0  0
 35 37  1  0  0  0  0
 35 38  1  0  0  0  0
 39 40  1  0  0  0  0
 39 43  1  0  0  0  0
 39 44  1  0  0  0  0
 40 41  1  0  0  0  0
 40 42  1  0  0  0  0
 54 55  2  0  0  0  0
 54 56  1  0  0  0  0
 56 57  2  0  0  0  0
 56 62  1  0  0  0  0
 57 58  1  0  0  0  0
 57 65  1  0  0  0  0
 58 59  2  0  0  0  0
 58 64  1  0  0  0  0
 59 60  1  0  0  0  0
 59 61  1  0  0  0  0
 61 62  2  0  0  0  0
 61 63  1  0  0  0  0
M  CHG  1  28   1
M  END
>  <MODEL>
       2

$$$$
