best_conformers_50.pdb
 OpenBabel01292518153D

 66 70  0  0  1  0  0  0  0  0999 V2000
   -6.6440   -6.5830  -28.8600 C   0  0  0  0  0  0  0  0  0  0  0  0
   -6.5830   -5.2400  -28.3030 N   0  0  0  0  0  0  0  0  0  0  0  0
   -6.9020   -5.0320  -26.9980 C   0  0  0  0  0  0  0  0  0  0  0  0
   -7.1590   -5.9650  -26.2510 O   0  0  0  0  0  0  0  0  0  0  0  0
   -6.8380   -3.5710  -26.5180 C   0  0  0  0  0  0  0  0  0  0  0  0
   -7.7240   -3.2670  -25.4040 N   0  0  0  0  0  0  0  0  0  0  0  0
   -7.2140   -2.4440  -24.3030 C   0  0  0  0  0  0  0  0  0  0  0  0
   -7.9360   -2.6860  -22.9540 C   0  0  2  0  0  0  0  0  0  0  0  0
   -7.5510   -1.5360  -21.9990 C   0  0  0  0  0  0  0  0  0  0  0  0
   -7.8650   -0.3670  -22.1050 O   0  0  0  0  0  0  0  0  0  0  0  0
   -6.7780   -2.0360  -20.9760 N   0  0  0  0  0  0  0  0  0  0  0  0
   -6.1750   -1.1900  -20.0110 C   0  0  0  0  0  0  0  0  0  0  0  0
   -6.5330   -1.2940  -18.6900 C   0  0  0  0  0  0  0  0  0  0  0  0
   -6.0250   -0.5330  -17.6880 N   0  0  0  0  0  0  0  0  0  0  0  0
   -5.1080    0.3490  -18.0150 C   0  0  0  0  0  0  0  0  0  0  0  0
   -4.6170    0.5410  -19.3410 C   0  0  0  0  0  0  0  0  0  0  0  0
   -3.6100    1.5030  -19.6360 C   0  0  0  0  0  0  0  0  0  0  0  0
   -3.1400    1.6460  -20.9130 C   0  0  0  0  0  0  0  0  0  0  0  0
   -3.6450    0.8300  -21.9490 C   0  0  0  0  0  0  0  0  0  0  0  0
   -4.6170   -0.1010  -21.6890 C   0  0  0  0  0  0  0  0  0  0  0  0
   -5.1490   -0.2570  -20.3760 C   0  0  0  0  0  0  0  0  0  0  0  0
   -4.9960   -0.7200  -22.4960 H   0  0  0  0  0  0  0  0  0  0  0  0
   -3.2750    0.9550  -22.9620 H   0  0  0  0  0  0  0  0  0  0  0  0
   -2.3840    2.3930  -21.1360 H   0  0  0  0  0  0  0  0  0  0  0  0
   -3.2360    2.1220  -18.8250 H   0  0  0  0  0  0  0  0  0  0  0  0
   -4.7090    0.9660  -17.2100 H   0  0  0  0  0  0  0  0  0  0  0  0
   -7.2860   -2.0220  -18.3900 H   0  0  0  0  0  0  0  0  0  0  0  0
   -6.4830   -3.4520  -21.0840 C   0  0  0  0  0  0  0  0  0  0  0  0
   -7.4830   -3.9520  -22.1370 C   0  0  2  0  0  0  0  0  0  0  0  0
   -6.9910   -5.1620  -22.9260 C   0  0  0  0  0  0  0  0  0  0  0  0
   -5.6930   -4.9390  -23.4560 O   0  0  0  0  0  0  0  0  0  0  0  0
   -4.9330   -6.1290  -23.6470 C   0  0  0  0  0  0  0  0  0  0  0  0
   -3.9680   -5.9030  -24.7990 C   0  0  0  0  0  0  0  0  0  0  0  0
   -3.3570   -6.7990  -24.9490 H   0  0  0  0  0  0  0  0  0  0  0  0
   -4.5070   -5.6920  -25.7260 H   0  0  0  0  0  0  0  0  0  0  0  0
   -3.3010   -5.0640  -24.5820 H   0  0  0  0  0  0  0  0  0  0  0  0
   -4.1990   -6.4630  -22.3520 C   0  0  0  0  0  0  0  0  0  0  0  0
   -3.5480   -5.6240  -22.0860 H   0  0  0  0  0  0  0  0  0  0  0  0
   -3.5780   -7.3570  -22.4750 H   0  0  0  0  0  0  0  0  0  0  0  0
   -4.8920   -6.6450  -21.5230 H   0  0  0  0  0  0  0  0  0  0  0  0
   -5.6270   -6.9450  -23.9140 H   0  0  0  0  0  0  0  0  0  0  0  0
   -6.9760   -6.0370  -22.2620 H   0  0  0  0  0  0  0  0  0  0  0  0
   -7.6710   -5.4000  -23.7520 H   0  0  0  0  0  0  0  0  0  0  0  0
   -8.3980   -4.2820  -21.6310 H   0  0  0  0  0  0  0  0  0  0  0  0
   -5.4480   -3.6130  -21.4100 H   0  0  0  0  0  0  0  0  0  0  0  0
   -6.5930   -3.9250  -20.1050 H   0  0  0  0  0  0  0  0  0  0  0  0
   -9.4340   -2.7020  -23.2170 C   0  0  0  0  0  0  0  0  0  0  0  0
  -10.3090   -2.4680  -22.1440 C   0  0  0  0  0  0  0  0  0  0  0  0
  -11.6630   -2.5760  -22.3710 C   0  0  0  0  0  0  0  0  0  0  0  0
  -12.5570   -2.4060  -21.3880 F   0  0  0  0  0  0  0  0  0  0  0  0
  -12.1830   -2.8900  -23.6110 C   0  0  0  0  0  0  0  0  0  0  0  0
  -11.3300   -3.1360  -24.6710 C   0  0  0  0  0  0  0  0  0  0  0  0
   -9.9540   -3.0480  -24.4740 C   0  0  0  0  0  0  0  0  0  0  0  0
   -9.0680   -3.3640  -25.6400 C   0  0  0  0  0  0  0  0  0  0  0  0
   -9.5180   -3.6940  -26.7320 O   0  0  0  0  0  0  0  0  0  0  0  0
  -11.6670   -3.4230  -25.6650 H   0  0  0  0  0  0  0  0  0  0  0  0
  -13.2610   -2.9380  -23.6410 H   0  0  0  0  0  0  0  0  0  0  0  0
   -9.9480   -2.2080  -21.1540 H   0  0  0  0  0  0  0  0  0  0  0  0
   -6.1530   -2.6840  -24.1830 H   0  0  0  0  0  0  0  0  0  0  0  0
   -7.3450   -1.3730  -24.5240 H   0  0  0  0  0  0  0  0  0  0  0  0
   -5.8220   -3.3920  -26.1500 H   0  0  0  0  0  0  0  0  0  0  0  0
   -7.0100   -2.8880  -27.3590 H   0  0  0  0  0  0  0  0  0  0  0  0
   -6.2970   -4.4730  -28.8920 H   0  0  0  0  0  0  0  0  0  0  0  0
   -5.9850   -7.2660  -28.3080 H   0  0  0  0  0  0  0  0  0  0  0  0
   -7.6630   -6.9820  -28.7880 H   0  0  0  0  0  0  0  0  0  0  0  0
   -6.3370   -6.5460  -29.9100 H   0  0  0  0  0  0  0  0  0  0  0  0
  1  2  1  0  0  0  0
  1 64  1  0  0  0  0
  1 65  1  0  0  0  0
  1 66  1  0  0  0  0
  2  3  1  0  0  0  0
  2 63  1  0  0  0  0
  3  4  2  0  0  0  0
  3  5  1  0  0  0  0
  5  6  1  0  0  0  0
  5 61  1  0  0  0  0
  5 62  1  0  0  0  0
  6  7  1  0  0  0  0
  6 54  1  0  0  0  0
  7  8  1  0  0  0  0
  7 59  1  0  0  0  0
  7 60  1  0  0  0  0
  8  9  1  1  0  0  0
  8 29  1  0  0  0  0
  8 47  1  0  0  0  0
  9 10  2  0  0  0  0
  9 11  1  0  0  0  0
 11 12  1  0  0  0  0
 11 28  1  0  0  0  0
 12 13  2  0  0  0  0
 12 21  1  0  0  0  0
 13 14  1  0  0  0  0
 13 27  1  0  0  0  0
 14 15  2  0  0  0  0
 15 16  1  0  0  0  0
 15 26  1  0  0  0  0
 16 17  2  0  0  0  0
 16 21  1  0  0  0  0
 17 18  1  0  0  0  0
 17 25  1  0  0  0  0
 18 19  2  0  0  0  0
 18 24  1  0  0  0  0
 19 20  1  0  0  0  0
 19 23  1  0  0  0  0
 20 21  2  0  0  0  0
 20 22  1  0  0  0  0
 28 29  1  0  0  0  0
 28 45  1  0  0  0  0
 28 46  1  0  0  0  0
 29 30  1  0  0  0  0
 29 44  1  1  0  0  0
 30 31  1  0  0  0  0
 30 42  1  0  0  0  0
 30 43  1  0  0  0  0
 31 32  1  0  0  0  0
 32 33  1  0  0  0  0
 32 37  1  0  0  0  0
 32 41  1  0  0  0  0
 33 34  1  0  0  0  0
 33 35  1  0  0  0  0
 33 36  1  0  0  0  0
 37 38  1  0  0  0  0
 37 39  1  0  0  0  0
 37 40  1  0  0  0  0
 47 48  2  0  0  0  0
 47 53  1  0  0  0  0
 48 49  1  0  0  0  0
 48 58  1  0  0  0  0
 49 50  1  0  0  0  0
 49 51  2  0  0  0  0
 51 52  1  0  0  0  0
 51 57  1  0  0  0  0
 52 53  2  0  0  0  0
 52 56  1  0  0  0  0
 53 54  1  0  0  0  0
 54 55  2  0  0  0  0
M  END
>  <MODEL>
       1

$$$$
best_conformers_50.pdb
 OpenBabel01292518153D

 66 70  0  0  1  0  0  0  0  0999 V2000
   -6.8630    2.5990  -23.6430 C   0  0  0  0  0  0  0  0  0  0  0  0
   -7.5830    1.7220  -24.5430 N   0  0  0  0  0  0  0  0  0  0  0  0
   -6.9560    0.6120  -25.0030 C   0  0  0  0  0  0  0  0  0  0  0  0
   -5.7750    0.3740  -24.7770 O   0  0  0  0  0  0  0  0  0  0  0  0
   -7.8420   -0.3550  -25.7880 C   0  0  0  0  0  0  0  0  0  0  0  0
   -8.5610   -1.2200  -24.8730 N   0  0  0  0  0  0  0  0  0  0  0  0
   -7.9160   -2.3970  -24.3210 C   0  0  0  0  0  0  0  0  0  0  0  0
   -8.2130   -2.5910  -22.8030 C   0  0  2  0  0  0  0  0  0  0  0  0
   -7.5750   -1.3960  -22.0400 C   0  0  0  0  0  0  0  0  0  0  0  0
   -7.8400   -0.2190  -22.1750 O   0  0  0  0  0  0  0  0  0  0  0  0
   -6.6300   -1.8800  -21.1630 N   0  0  0  0  0  0  0  0  0  0  0  0
   -6.0970   -1.1020  -20.1230 C   0  0  0  0  0  0  0  0  0  0  0  0
   -6.5140   -1.2720  -18.8300 C   0  0  0  0  0  0  0  0  0  0  0  0
   -6.0490   -0.5500  -17.7880 N   0  0  0  0  0  0  0  0  0  0  0  0
   -5.1220    0.3490  -18.0470 C   0  0  0  0  0  0  0  0  0  0  0  0
   -4.5850    0.5950  -19.3500 C   0  0  0  0  0  0  0  0  0  0  0  0
   -3.5810    1.5650  -19.6280 C   0  0  0  0  0  0  0  0  0  0  0  0
   -3.1020    1.7290  -20.9020 C   0  0  0  0  0  0  0  0  0  0  0  0
   -3.5850    0.9390  -21.9700 C   0  0  0  0  0  0  0  0  0  0  0  0
   -4.5480   -0.0040  -21.7320 C   0  0  0  0  0  0  0  0  0  0  0  0
   -5.0770   -0.1700  -20.4240 C   0  0  0  0  0  0  0  0  0  0  0  0
   -4.9310   -0.6130  -22.5440 H   0  0  0  0  0  0  0  0  0  0  0  0
   -3.2200    1.0830  -22.9830 H   0  0  0  0  0  0  0  0  0  0  0  0
   -2.3360    2.4720  -21.1070 H   0  0  0  0  0  0  0  0  0  0  0  0
   -3.2110    2.1830  -18.8150 H   0  0  0  0  0  0  0  0  0  0  0  0
   -4.7600    0.9310  -17.2000 H   0  0  0  0  0  0  0  0  0  0  0  0
   -7.2750   -2.0180  -18.5990 H   0  0  0  0  0  0  0  0  0  0  0  0
   -6.6760   -3.3010  -20.9820 C   0  0  0  0  0  0  0  0  0  0  0  0
   -7.4510   -3.8290  -22.2030 C   0  0  2  0  0  0  0  0  0  0  0  0
   -6.4440   -4.5070  -23.1530 C   0  0  0  0  0  0  0  0  0  0  0  0
   -5.8950   -5.6430  -22.5130 O   0  0  0  0  0  0  0  0  0  0  0  0
   -4.9790   -6.3950  -23.3050 C   0  0  0  0  0  0  0  0  0  0  0  0
   -5.6730   -7.5790  -23.9690 C   0  0  0  0  0  0  0  0  0  0  0  0
   -6.4830   -7.2670  -24.6360 H   0  0  0  0  0  0  0  0  0  0  0  0
   -6.0890   -8.2450  -23.2060 H   0  0  0  0  0  0  0  0  0  0  0  0
   -4.9460   -8.1460  -24.5610 H   0  0  0  0  0  0  0  0  0  0  0  0
   -3.8570   -6.8790  -22.4000 C   0  0  0  0  0  0  0  0  0  0  0  0
   -3.3540   -6.0320  -21.9290 H   0  0  0  0  0  0  0  0  0  0  0  0
   -3.1160   -7.4420  -22.9800 H   0  0  0  0  0  0  0  0  0  0  0  0
   -4.2610   -7.5360  -21.6230 H   0  0  0  0  0  0  0  0  0  0  0  0
   -4.5500   -5.7430  -24.0820 H   0  0  0  0  0  0  0  0  0  0  0  0
   -6.9350   -4.8000  -24.0890 H   0  0  0  0  0  0  0  0  0  0  0  0
   -5.6230   -3.8130  -23.4010 H   0  0  0  0  0  0  0  0  0  0  0  0
   -8.1450   -4.6220  -21.9120 H   0  0  0  0  0  0  0  0  0  0  0  0
   -5.6650   -3.7100  -20.8840 H   0  0  0  0  0  0  0  0  0  0  0  0
   -7.1800   -3.4840  -20.0480 H   0  0  0  0  0  0  0  0  0  0  0  0
   -9.7520   -2.5710  -22.6720 C   0  0  0  0  0  0  0  0  0  0  0  0
  -10.4990   -3.3010  -21.7340 C   0  0  0  0  0  0  0  0  0  0  0  0
  -11.8780   -3.1280  -21.6880 C   0  0  0  0  0  0  0  0  0  0  0  0
  -12.6200   -3.7580  -20.7620 F   0  0  0  0  0  0  0  0  0  0  0  0
  -12.5810   -2.2990  -22.5480 C   0  0  0  0  0  0  0  0  0  0  0  0
  -11.8570   -1.5610  -23.4500 C   0  0  0  0  0  0  0  0  0  0  0  0
  -10.4730   -1.6810  -23.4900 C   0  0  0  0  0  0  0  0  0  0  0  0
   -9.7830   -0.8040  -24.4690 C   0  0  0  0  0  0  0  0  0  0  0  0
  -10.2910    0.2360  -24.8860 O   0  0  0  0  0  0  0  0  0  0  0  0
  -12.3320   -0.8640  -24.1300 H   0  0  0  0  0  0  0  0  0  0  0  0
  -13.6590   -2.2370  -22.4710 H   0  0  0  0  0  0  0  0  0  0  0  0
  -10.0290   -3.9800  -21.0290 H   0  0  0  0  0  0  0  0  0  0  0  0
   -8.2780   -3.2850  -24.8560 H   0  0  0  0  0  0  0  0  0  0  0  0
   -6.8420   -2.2780  -24.4830 H   0  0  0  0  0  0  0  0  0  0  0  0
   -7.2260   -0.9630  -26.4570 H   0  0  0  0  0  0  0  0  0  0  0  0
   -8.5840    0.1950  -26.3700 H   0  0  0  0  0  0  0  0  0  0  0  0
   -8.5910    1.7010  -24.5010 H   0  0  0  0  0  0  0  0  0  0  0  0
   -6.0250    3.0590  -24.1740 H   0  0  0  0  0  0  0  0  0  0  0  0
   -7.5330    3.3860  -23.2920 H   0  0  0  0  0  0  0  0  0  0  0  0
   -6.4760    2.0350  -22.7850 H   0  0  0  0  0  0  0  0  0  0  0  0
  1  2  1  0  0  0  0
  1 64  1  0  0  0  0
  1 65  1  0  0  0  0
  1 66  1  0  0  0  0
  2  3  1  0  0  0  0
  2 63  1  0  0  0  0
  3  4  2  0  0  0  0
  3  5  1  0  0  0  0
  5  6  1  0  0  0  0
  5 61  1  0  0  0  0
  5 62  1  0  0  0  0
  6  7  1  0  0  0  0
  6 54  1  0  0  0  0
  7  8  1  0  0  0  0
  7 59  1  0  0  0  0
  7 60  1  0  0  0  0
  8  9  1  1  0  0  0
  8 29  1  0  0  0  0
  8 47  1  0  0  0  0
  9 10  2  0  0  0  0
  9 11  1  0  0  0  0
 11 12  1  0  0  0  0
 11 28  1  0  0  0  0
 12 13  2  0  0  0  0
 12 21  1  0  0  0  0
 13 14  1  0  0  0  0
 13 27  1  0  0  0  0
 14 15  2  0  0  0  0
 15 16  1  0  0  0  0
 15 26  1  0  0  0  0
 16 17  2  0  0  0  0
 16 21  1  0  0  0  0
 17 18  1  0  0  0  0
 17 25  1  0  0  0  0
 18 19  2  0  0  0  0
 18 24  1  0  0  0  0
 19 20  1  0  0  0  0
 19 23  1  0  0  0  0
 20 21  2  0  0  0  0
 20 22  1  0  0  0  0
 28 29  1  0  0  0  0
 28 45  1  0  0  0  0
 28 46  1  0  0  0  0
 29 30  1  0  0  0  0
 29 44  1  1  0  0  0
 30 31  1  0  0  0  0
 30 42  1  0  0  0  0
 30 43  1  0  0  0  0
 31 32  1  0  0  0  0
 32 33  1  0  0  0  0
 32 37  1  0  0  0  0
 32 41  1  0  0  0  0
 33 34  1  0  0  0  0
 33 35  1  0  0  0  0
 33 36  1  0  0  0  0
 37 38  1  0  0  0  0
 37 39  1  0  0  0  0
 37 40  1  0  0  0  0
 47 48  2  0  0  0  0
 47 53  1  0  0  0  0
 48 49  1  0  0  0  0
 48 58  1  0  0  0  0
 49 50  1  0  0  0  0
 49 51  2  0  0  0  0
 51 52  1  0  0  0  0
 51 57  1  0  0  0  0
 52 53  2  0  0  0  0
 52 56  1  0  0  0  0
 53 54  1  0  0  0  0
 54 55  2  0  0  0  0
M  END
>  <MODEL>
       2

$$$$
best_conformers_50.pdb
 OpenBabel01292518153D

 66 70  0  0  1  0  0  0  0  0999 V2000
   -8.5720    3.1940  -24.2020 C   0  0  0  0  0  0  0  0  0  0  0  0
   -8.2600    2.0700  -25.0600 N   0  0  0  0  0  0  0  0  0  0  0  0
   -7.2960    1.1830  -24.6770 C   0  0  0  0  0  0  0  0  0  0  0  0
   -6.5130    1.4130  -23.7710 O   0  0  0  0  0  0  0  0  0  0  0  0
   -7.2230   -0.1250  -25.4850 C   0  0  0  0  0  0  0  0  0  0  0  0
   -7.9790   -1.2110  -24.8710 N   0  0  0  0  0  0  0  0  0  0  0  0
   -7.3350   -2.3430  -24.2240 C   0  0  0  0  0  0  0  0  0  0  0  0
   -7.9930   -2.7040  -22.8600 C   0  0  2  0  0  0  0  0  0  0  0  0
   -7.6810   -1.5960  -21.8400 C   0  0  0  0  0  0  0  0  0  0  0  0
   -8.1640   -0.4890  -21.8100 O   0  0  0  0  0  0  0  0  0  0  0  0
   -6.7570   -2.0730  -20.9410 N   0  0  0  0  0  0  0  0  0  0  0  0
   -6.1510   -1.2180  -19.9880 C   0  0  0  0  0  0  0  0  0  0  0  0
   -6.5250   -1.3040  -18.6720 C   0  0  0  0  0  0  0  0  0  0  0  0
   -6.0290   -0.5300  -17.6760 N   0  0  0  0  0  0  0  0  0  0  0  0
   -5.1090    0.3500  -18.0040 C   0  0  0  0  0  0  0  0  0  0  0  0
   -4.6160    0.5330  -19.3280 C   0  0  0  0  0  0  0  0  0  0  0  0
   -3.6170    1.5000  -19.6330 C   0  0  0  0  0  0  0  0  0  0  0  0
   -3.1560    1.6470  -20.9120 C   0  0  0  0  0  0  0  0  0  0  0  0
   -3.6750    0.8410  -21.9510 C   0  0  0  0  0  0  0  0  0  0  0  0
   -4.6460   -0.0940  -21.6860 C   0  0  0  0  0  0  0  0  0  0  0  0
   -5.1450   -0.2710  -20.3640 C   0  0  0  0  0  0  0  0  0  0  0  0
   -5.0490   -0.6900  -22.5010 H   0  0  0  0  0  0  0  0  0  0  0  0
   -3.3200    0.9740  -22.9690 H   0  0  0  0  0  0  0  0  0  0  0  0
   -2.4000    2.3960  -21.1420 H   0  0  0  0  0  0  0  0  0  0  0  0
   -3.2360    2.1240  -18.8280 H   0  0  0  0  0  0  0  0  0  0  0  0
   -4.7010    0.9720  -17.2040 H   0  0  0  0  0  0  0  0  0  0  0  0
   -7.2900   -2.0220  -18.3780 H   0  0  0  0  0  0  0  0  0  0  0  0
   -6.3070   -3.4230  -21.2120 C   0  0  0  0  0  0  0  0  0  0  0  0
   -7.3460   -3.9590  -22.2150 C   0  0  2  0  0  0  0  0  0  0  0  0
   -6.7580   -4.9770  -23.1890 C   0  0  0  0  0  0  0  0  0  0  0  0
   -6.3430   -6.1210  -22.4780 O   0  0  0  0  0  0  0  0  0  0  0  0
   -5.5940   -7.0330  -23.2730 C   0  0  0  0  0  0  0  0  0  0  0  0
   -5.9770   -8.4370  -22.8440 C   0  0  0  0  0  0  0  0  0  0  0  0
   -5.6910   -8.5740  -21.8010 H   0  0  0  0  0  0  0  0  0  0  0  0
   -5.4530   -9.1880  -23.4440 H   0  0  0  0  0  0  0  0  0  0  0  0
   -7.0540   -8.5990  -22.9380 H   0  0  0  0  0  0  0  0  0  0  0  0
   -4.1010   -6.7920  -23.0860 C   0  0  0  0  0  0  0  0  0  0  0  0
   -3.5200   -7.5150  -23.6680 H   0  0  0  0  0  0  0  0  0  0  0  0
   -3.8070   -5.7870  -23.4010 H   0  0  0  0  0  0  0  0  0  0  0  0
   -3.8390   -6.9110  -22.0320 H   0  0  0  0  0  0  0  0  0  0  0  0
   -5.8590   -6.8910  -24.3320 H   0  0  0  0  0  0  0  0  0  0  0  0
   -5.8990   -4.5330  -23.7180 H   0  0  0  0  0  0  0  0  0  0  0  0
   -7.5080   -5.2680  -23.9450 H   0  0  0  0  0  0  0  0  0  0  0  0
   -8.1330   -4.4760  -21.6710 H   0  0  0  0  0  0  0  0  0  0  0  0
   -5.3010   -3.4190  -21.6530 H   0  0  0  0  0  0  0  0  0  0  0  0
   -6.2620   -4.0010  -20.2860 H   0  0  0  0  0  0  0  0  0  0  0  0
   -9.4940   -2.7690  -23.0440 C   0  0  0  0  0  0  0  0  0  0  0  0
  -10.3180   -3.3160  -22.0590 C   0  0  0  0  0  0  0  0  0  0  0  0
  -11.6850   -3.2700  -22.2440 C   0  0  0  0  0  0  0  0  0  0  0  0
  -12.4900   -3.6600  -21.2450 F   0  0  0  0  0  0  0  0  0  0  0  0
  -12.2800   -2.7710  -23.4000 C   0  0  0  0  0  0  0  0  0  0  0  0
  -11.4730   -2.1470  -24.3260 C   0  0  0  0  0  0  0  0  0  0  0  0
  -10.0990   -2.0900  -24.1020 C   0  0  0  0  0  0  0  0  0  0  0  0
   -9.3270   -1.0820  -24.8620 C   0  0  0  0  0  0  0  0  0  0  0  0
   -9.9030   -0.1350  -25.3920 O   0  0  0  0  0  0  0  0  0  0  0  0
  -11.8810   -1.6660  -25.2090 H   0  0  0  0  0  0  0  0  0  0  0  0
  -13.3580   -2.8200  -23.4960 H   0  0  0  0  0  0  0  0  0  0  0  0
   -9.9170   -3.7330  -21.1420 H   0  0  0  0  0  0  0  0  0  0  0  0
   -6.2820   -2.0920  -24.0600 H   0  0  0  0  0  0  0  0  0  0  0  0
   -7.3730   -3.2150  -24.8890 H   0  0  0  0  0  0  0  0  0  0  0  0
   -7.5940    0.0320  -26.5030 H   0  0  0  0  0  0  0  0  0  0  0  0
   -6.1710   -0.4190  -25.5300 H   0  0  0  0  0  0  0  0  0  0  0  0
   -9.0150    1.7030  -25.6220 H   0  0  0  0  0  0  0  0  0  0  0  0
   -9.4380    3.7260  -24.6020 H   0  0  0  0  0  0  0  0  0  0  0  0
   -8.7920    2.8750  -23.1780 H   0  0  0  0  0  0  0  0  0  0  0  0
   -7.7220    3.8750  -24.1670 H   0  0  0  0  0  0  0  0  0  0  0  0
  1  2  1  0  0  0  0
  1 64  1  0  0  0  0
  1 65  1  0  0  0  0
  1 66  1  0  0  0  0
  2  3  1  0  0  0  0
  2 63  1  0  0  0  0
  3  4  2  0  0  0  0
  3  5  1  0  0  0  0
  5  6  1  0  0  0  0
  5 61  1  0  0  0  0
  5 62  1  0  0  0  0
  6  7  1  0  0  0  0
  6 54  1  0  0  0  0
  7  8  1  0  0  0  0
  7 59  1  0  0  0  0
  7 60  1  0  0  0  0
  8  9  1  1  0  0  0
  8 29  1  0  0  0  0
  8 47  1  0  0  0  0
  9 10  2  0  0  0  0
  9 11  1  0  0  0  0
 11 12  1  0  0  0  0
 11 28  1  0  0  0  0
 12 13  2  0  0  0  0
 12 21  1  0  0  0  0
 13 14  1  0  0  0  0
 13 27  1  0  0  0  0
 14 15  2  0  0  0  0
 15 16  1  0  0  0  0
 15 26  1  0  0  0  0
 16 17  2  0  0  0  0
 16 21  1  0  0  0  0
 17 18  1  0  0  0  0
 17 25  1  0  0  0  0
 18 19  2  0  0  0  0
 18 24  1  0  0  0  0
 19 20  1  0  0  0  0
 19 23  1  0  0  0  0
 20 21  2  0  0  0  0
 20 22  1  0  0  0  0
 28 29  1  0  0  0  0
 28 45  1  0  0  0  0
 28 46  1  0  0  0  0
 29 30  1  0  0  0  0
 29 44  1  1  0  0  0
 30 31  1  0  0  0  0
 30 42  1  0  0  0  0
 30 43  1  0  0  0  0
 31 32  1  0  0  0  0
 32 33  1  0  0  0  0
 32 37  1  0  0  0  0
 32 41  1  0  0  0  0
 33 34  1  0  0  0  0
 33 35  1  0  0  0  0
 33 36  1  0  0  0  0
 37 38  1  0  0  0  0
 37 39  1  0  0  0  0
 37 40  1  0  0  0  0
 47 48  2  0  0  0  0
 47 53  1  0  0  0  0
 48 49  1  0  0  0  0
 48 58  1  0  0  0  0
 49 50  1  0  0  0  0
 49 51  2  0  0  0  0
 51 52  1  0  0  0  0
 51 57  1  0  0  0  0
 52 53  2  0  0  0  0
 52 56  1  0  0  0  0
 53 54  1  0  0  0  0
 54 55  2  0  0  0  0
M  END
>  <MODEL>
       3

$$$$
best_conformers_50.pdb
 OpenBabel01292518153D

 66 70  0  0  1  0  0  0  0  0999 V2000
   -5.6740   -0.3790  -28.2270 C   0  0  0  0  0  0  0  0  0  0  0  0
   -5.7000   -1.4380  -27.2420 N   0  0  0  0  0  0  0  0  0  0  0  0
   -6.4080   -2.5640  -27.5130 C   0  0  0  0  0  0  0  0  0  0  0  0
   -6.9480   -2.7240  -28.5960 O   0  0  0  0  0  0  0  0  0  0  0  0
   -6.5140   -3.5970  -26.3860 C   0  0  0  0  0  0  0  0  0  0  0  0
   -7.4960   -3.2640  -25.3710 N   0  0  0  0  0  0  0  0  0  0  0  0
   -7.0580   -2.4310  -24.2600 C   0  0  0  0  0  0  0  0  0  0  0  0
   -7.8270   -2.6950  -22.9570 C   0  0  2  0  0  0  0  0  0  0  0  0
   -7.4970   -1.5480  -21.9870 C   0  0  0  0  0  0  0  0  0  0  0  0
   -7.8200   -0.3800  -22.0850 O   0  0  0  0  0  0  0  0  0  0  0  0
   -6.7450   -2.0500  -20.9550 N   0  0  0  0  0  0  0  0  0  0  0  0
   -6.1520   -1.2010  -20.0000 C   0  0  0  0  0  0  0  0  0  0  0  0
   -6.5280   -1.3080  -18.6860 C   0  0  0  0  0  0  0  0  0  0  0  0
   -6.0390   -0.5390  -17.6850 N   0  0  0  0  0  0  0  0  0  0  0  0
   -5.1240    0.3450  -18.0140 C   0  0  0  0  0  0  0  0  0  0  0  0
   -4.6280    0.5340  -19.3370 C   0  0  0  0  0  0  0  0  0  0  0  0
   -3.6260    1.4980  -19.6280 C   0  0  0  0  0  0  0  0  0  0  0  0
   -3.1460    1.6450  -20.9010 C   0  0  0  0  0  0  0  0  0  0  0  0
   -3.6430    0.8340  -21.9480 C   0  0  0  0  0  0  0  0  0  0  0  0
   -4.6160   -0.0990  -21.6960 C   0  0  0  0  0  0  0  0  0  0  0  0
   -5.1450   -0.2620  -20.3790 C   0  0  0  0  0  0  0  0  0  0  0  0
   -4.9880   -0.7100  -22.5150 H   0  0  0  0  0  0  0  0  0  0  0  0
   -3.2580    0.9590  -22.9570 H   0  0  0  0  0  0  0  0  0  0  0  0
   -2.3870    2.3920  -21.1200 H   0  0  0  0  0  0  0  0  0  0  0  0
   -3.2560    2.1160  -18.8150 H   0  0  0  0  0  0  0  0  0  0  0  0
   -4.7130    0.9610  -17.2130 H   0  0  0  0  0  0  0  0  0  0  0  0
   -7.2900   -2.0360  -18.4060 H   0  0  0  0  0  0  0  0  0  0  0  0
   -6.4090   -3.4540  -21.0850 C   0  0  0  0  0  0  0  0  0  0  0  0
   -7.4290   -3.9580  -22.1080 C   0  0  2  0  0  0  0  0  0  0  0  0
   -7.0100   -5.2120  -22.8630 C   0  0  0  0  0  0  0  0  0  0  0  0
   -5.7290   -5.0710  -23.4520 O   0  0  0  0  0  0  0  0  0  0  0  0
   -5.0030   -6.2940  -23.5840 C   0  0  0  0  0  0  0  0  0  0  0  0
   -4.1650   -6.5260  -22.3330 C   0  0  0  0  0  0  0  0  0  0  0  0
   -3.5930   -7.4590  -22.4070 H   0  0  0  0  0  0  0  0  0  0  0  0
   -4.7900   -6.5850  -21.4370 H   0  0  0  0  0  0  0  0  0  0  0  0
   -3.4590   -5.7000  -22.2070 H   0  0  0  0  0  0  0  0  0  0  0  0
   -4.1400   -6.1840  -24.8310 C   0  0  0  0  0  0  0  0  0  0  0  0
   -3.5290   -7.0840  -24.9670 H   0  0  0  0  0  0  0  0  0  0  0  0
   -4.7530   -6.0540  -25.7300 H   0  0  0  0  0  0  0  0  0  0  0  0
   -3.4720   -5.3220  -24.7420 H   0  0  0  0  0  0  0  0  0  0  0  0
   -5.7170   -7.1220  -23.7110 H   0  0  0  0  0  0  0  0  0  0  0  0
   -7.0180   -6.0600  -22.1630 H   0  0  0  0  0  0  0  0  0  0  0  0
   -7.7510   -5.4250  -23.6460 H   0  0  0  0  0  0  0  0  0  0  0  0
   -8.3520   -4.2270  -21.5710 H   0  0  0  0  0  0  0  0  0  0  0  0
   -5.3850   -3.5820  -21.4570 H   0  0  0  0  0  0  0  0  0  0  0  0
   -6.4760   -3.9440  -20.1120 H   0  0  0  0  0  0  0  0  0  0  0  0
   -9.2930   -2.7270  -23.2940 C   0  0  0  0  0  0  0  0  0  0  0  0
  -10.2020   -2.3870  -22.2880 C   0  0  0  0  0  0  0  0  0  0  0  0
  -11.5440   -2.5900  -22.5380 C   0  0  0  0  0  0  0  0  0  0  0  0
  -12.4590   -2.2960  -21.6060 F   0  0  0  0  0  0  0  0  0  0  0  0
  -12.0160   -3.1460  -23.7150 C   0  0  0  0  0  0  0  0  0  0  0  0
  -11.1230   -3.3930  -24.7360 C   0  0  0  0  0  0  0  0  0  0  0  0
   -9.7610   -3.1850  -24.5270 C   0  0  0  0  0  0  0  0  0  0  0  0
   -8.8110   -3.5590  -25.6180 C   0  0  0  0  0  0  0  0  0  0  0  0
   -9.1820   -4.1170  -26.6390 O   0  0  0  0  0  0  0  0  0  0  0  0
  -11.4240   -3.7660  -25.7070 H   0  0  0  0  0  0  0  0  0  0  0  0
  -13.0680   -3.4040  -23.7550 H   0  0  0  0  0  0  0  0  0  0  0  0
   -9.8660   -1.9980  -21.3280 H   0  0  0  0  0  0  0  0  0  0  0  0
   -6.0000   -2.6260  -24.0790 H   0  0  0  0  0  0  0  0  0  0  0  0
   -7.1990   -1.3660  -24.4920 H   0  0  0  0  0  0  0  0  0  0  0  0
   -6.8110   -4.5360  -26.8530 H   0  0  0  0  0  0  0  0  0  0  0  0
   -5.5520   -3.7060  -25.8680 H   0  0  0  0  0  0  0  0  0  0  0  0
   -5.1820   -1.3290  -26.3860 H   0  0  0  0  0  0  0  0  0  0  0  0
   -5.2670   -0.7400  -29.1740 H   0  0  0  0  0  0  0  0  0  0  0  0
   -6.6900   -0.0280  -28.4220 H   0  0  0  0  0  0  0  0  0  0  0  0
   -5.0690    0.4500  -27.8610 H   0  0  0  0  0  0  0  0  0  0  0  0
  1  2  1  0  0  0  0
  1 64  1  0  0  0  0
  1 65  1  0  0  0  0
  1 66  1  0  0  0  0
  2  3  1  0  0  0  0
  2 63  1  0  0  0  0
  3  4  2  0  0  0  0
  3  5  1  0  0  0  0
  5  6  1  0  0  0  0
  5 61  1  0  0  0  0
  5 62  1  0  0  0  0
  6  7  1  0  0  0  0
  6 54  1  0  0  0  0
  7  8  1  0  0  0  0
  7 59  1  0  0  0  0
  7 60  1  0  0  0  0
  8  9  1  1  0  0  0
  8 29  1  0  0  0  0
  8 47  1  0  0  0  0
  9 10  2  0  0  0  0
  9 11  1  0  0  0  0
 11 12  1  0  0  0  0
 11 28  1  0  0  0  0
 12 13  2  0  0  0  0
 12 21  1  0  0  0  0
 13 14  1  0  0  0  0
 13 27  1  0  0  0  0
 14 15  2  0  0  0  0
 15 16  1  0  0  0  0
 15 26  1  0  0  0  0
 16 17  2  0  0  0  0
 16 21  1  0  0  0  0
 17 18  1  0  0  0  0
 17 25  1  0  0  0  0
 18 19  2  0  0  0  0
 18 24  1  0  0  0  0
 19 20  1  0  0  0  0
 19 23  1  0  0  0  0
 20 21  2  0  0  0  0
 20 22  1  0  0  0  0
 28 29  1  0  0  0  0
 28 45  1  0  0  0  0
 28 46  1  0  0  0  0
 29 30  1  0  0  0  0
 29 44  1  1  0  0  0
 30 31  1  0  0  0  0
 30 42  1  0  0  0  0
 30 43  1  0  0  0  0
 31 32  1  0  0  0  0
 32 33  1  0  0  0  0
 32 37  1  0  0  0  0
 32 41  1  0  0  0  0
 33 34  1  0  0  0  0
 33 35  1  0  0  0  0
 33 36  1  0  0  0  0
 37 38  1  0  0  0  0
 37 39  1  0  0  0  0
 37 40  1  0  0  0  0
 47 48  2  0  0  0  0
 47 53  1  0  0  0  0
 48 49  1  0  0  0  0
 48 58  1  0  0  0  0
 49 50  1  0  0  0  0
 49 51  2  0  0  0  0
 51 52  1  0  0  0  0
 51 57  1  0  0  0  0
 52 53  2  0  0  0  0
 52 56  1  0  0  0  0
 53 54  1  0  0  0  0
 54 55  2  0  0  0  0
M  END
>  <MODEL>
       4

$$$$
