best_conformers_41.pdb
 OpenBabel01292518153D

 67 71  0  0  1  0  0  0  0  0999 V2000
   -6.9220    2.4110  -23.6300 C   0  0  0  0  0  0  0  0  0  0  0  0
   -7.3970    1.3610  -24.5060 N   0  0  0  0  0  0  0  0  0  0  0  0
   -6.5370    0.4230  -24.9500 C   0  0  0  0  0  0  0  0  0  0  0  0
   -5.3260    0.4630  -24.7570 O   0  0  0  0  0  0  0  0  0  0  0  0
   -7.1750   -0.7210  -25.7420 C   0  0  0  0  0  0  0  0  0  0  0  0
   -8.0890   -1.5030  -24.9340 N   0  0  0  0  0  0  0  0  0  0  0  0
   -7.5700   -2.6180  -24.1610 C   0  0  0  0  0  0  0  0  0  0  0  0
   -8.1850   -2.6800  -22.7380 C   0  0  2  0  0  0  0  0  0  0  0  0
   -7.6700   -1.5140  -21.8700 C   0  0  0  0  0  0  0  0  0  0  0  0
   -7.9820   -0.3440  -21.9510 O   0  0  0  0  0  0  0  0  0  0  0  0
   -6.7870   -2.0180  -20.9450 N   0  0  0  0  0  0  0  0  0  0  0  0
   -6.1650   -1.1960  -19.9860 C   0  0  0  0  0  0  0  0  0  0  0  0
   -6.5310   -1.2990  -18.6690 C   0  0  0  0  0  0  0  0  0  0  0  0
   -6.0310   -0.5350  -17.6700 N   0  0  0  0  0  0  0  0  0  0  0  0
   -5.1150    0.3470  -18.0060 C   0  0  0  0  0  0  0  0  0  0  0  0
   -4.6260    0.5350  -19.3320 C   0  0  0  0  0  0  0  0  0  0  0  0
   -3.6270    1.4990  -19.6320 C   0  0  0  0  0  0  0  0  0  0  0  0
   -3.1650    1.6470  -20.9120 C   0  0  0  0  0  0  0  0  0  0  0  0
   -3.6800    0.8440  -21.9530 C   0  0  0  0  0  0  0  0  0  0  0  0
   -4.6480   -0.0930  -21.6910 C   0  0  0  0  0  0  0  0  0  0  0  0
   -5.1550   -0.2640  -20.3690 C   0  0  0  0  0  0  0  0  0  0  0  0
   -5.0330   -0.6920  -22.5110 H   0  0  0  0  0  0  0  0  0  0  0  0
   -3.3340    0.9790  -22.9740 H   0  0  0  0  0  0  0  0  0  0  0  0
   -2.4000    2.3850  -21.1330 H   0  0  0  0  0  0  0  0  0  0  0  0
   -3.2490    2.1170  -18.8220 H   0  0  0  0  0  0  0  0  0  0  0  0
   -4.7060    0.9680  -17.2100 H   0  0  0  0  0  0  0  0  0  0  0  0
   -7.2930   -2.0240  -18.3830 H   0  0  0  0  0  0  0  0  0  0  0  0
   -6.5170   -3.4270  -21.0750 C   0  0  0  0  0  0  0  0  0  0  0  0
   -7.6850   -3.9080  -21.9450 C   0  0  2  0  0  0  0  0  0  0  0  0
   -7.3410   -5.1310  -22.7700 C   0  0  0  0  0  0  0  0  0  0  0  0
   -7.0390   -6.5180  -21.6960 S   0  0  0  0  0  0  0  0  0  0  0  0
   -8.2580   -6.7490  -20.9440 O   0  0  0  0  0  0  0  0  0  0  0  0
   -5.7730   -6.3400  -21.0050 O   0  0  0  0  0  0  0  0  0  0  0  0
   -6.8980   -7.7770  -22.7520 N   0  0  0  0  0  0  0  0  0  0  0  0
   -8.1660   -8.2320  -23.3290 C   0  0  0  0  0  0  0  0  0  0  0  0
   -8.2490   -7.9650  -24.3930 H   0  0  0  0  0  0  0  0  0  0  0  0
   -8.9780   -7.7580  -22.7640 H   0  0  0  0  0  0  0  0  0  0  0  0
   -8.2480   -9.3190  -23.2100 H   0  0  0  0  0  0  0  0  0  0  0  0
   -5.7120   -7.7610  -23.5950 C   0  0  0  0  0  0  0  0  0  0  0  0
   -5.4510   -8.7880  -23.8460 H   0  0  0  0  0  0  0  0  0  0  0  0
   -5.8670   -7.1920  -24.5250 H   0  0  0  0  0  0  0  0  0  0  0  0
   -4.8790   -7.3330  -23.0310 H   0  0  0  0  0  0  0  0  0  0  0  0
   -6.4490   -4.9790  -23.3810 H   0  0  0  0  0  0  0  0  0  0  0  0
   -8.1750   -5.4020  -23.4240 H   0  0  0  0  0  0  0  0  0  0  0  0
   -8.5160   -4.1880  -21.3060 H   0  0  0  0  0  0  0  0  0  0  0  0
   -5.5470   -3.6170  -21.5620 H   0  0  0  0  0  0  0  0  0  0  0  0
   -6.4900   -3.9130  -20.0990 H   0  0  0  0  0  0  0  0  0  0  0  0
   -9.6920   -2.5840  -22.8520 C   0  0  0  0  0  0  0  0  0  0  0  0
  -10.5380   -3.0110  -21.8230 C   0  0  0  0  0  0  0  0  0  0  0  0
  -11.9020   -2.8510  -21.9690 C   0  0  0  0  0  0  0  0  0  0  0  0
  -12.7230   -3.2420  -20.9820 F   0  0  0  0  0  0  0  0  0  0  0  0
  -12.4810   -2.3010  -23.1080 C   0  0  0  0  0  0  0  0  0  0  0  0
  -11.6380   -1.8080  -24.0820 C   0  0  0  0  0  0  0  0  0  0  0  0
  -10.2550   -1.8800  -23.9180 C   0  0  0  0  0  0  0  0  0  0  0  0
   -9.3650   -1.0670  -24.8030 C   0  0  0  0  0  0  0  0  0  0  0  0
   -9.7560   -0.0270  -25.3430 O   0  0  0  0  0  0  0  0  0  0  0  0
  -12.0210   -1.3270  -24.9730 H   0  0  0  0  0  0  0  0  0  0  0  0
  -13.5600   -2.2230  -23.1900 H   0  0  0  0  0  0  0  0  0  0  0  0
  -10.1430   -3.4410  -20.9130 H   0  0  0  0  0  0  0  0  0  0  0  0
   -6.4820   -2.4980  -24.0810 H   0  0  0  0  0  0  0  0  0  0  0  0
   -7.8010   -3.5490  -24.6930 H   0  0  0  0  0  0  0  0  0  0  0  0
   -7.7270   -0.3220  -26.5970 H   0  0  0  0  0  0  0  0  0  0  0  0
   -6.3840   -1.3740  -26.1070 H   0  0  0  0  0  0  0  0  0  0  0  0
   -8.3900    1.2240  -24.6650 H   0  0  0  0  0  0  0  0  0  0  0  0
   -6.1890    3.0320  -24.1550 H   0  0  0  0  0  0  0  0  0  0  0  0
   -6.4490    1.9840  -22.7330 H   0  0  0  0  0  0  0  0  0  0  0  0
   -7.7660    3.0350  -23.3270 H   0  0  0  0  0  0  0  0  0  0  0  0
  1  2  1  0  0  0  0
  1 65  1  0  0  0  0
  1 66  1  0  0  0  0
  1 67  1  0  0  0  0
  2  3  1  0  0  0  0
  2 64  1  0  0  0  0
  3  4  2  0  0  0  0
  3  5  1  0  0  0  0
  5  6  1  0  0  0  0
  5 62  1  0  0  0  0
  5 63  1  0  0  0  0
  6  7  1  0  0  0  0
  6 55  1  0  0  0  0
  7  8  1  0  0  0  0
  7 60  1  0  0  0  0
  7 61  1  0  0  0  0
  8  9  1  1  0  0  0
  8 29  1  0  0  0  0
  8 48  1  0  0  0  0
  9 10  2  0  0  0  0
  9 11  1  0  0  0  0
 11 12  1  0  0  0  0
 11 28  1  0  0  0  0
 12 13  2  0  0  0  0
 12 21  1  0  0  0  0
 13 14  1  0  0  0  0
 13 27  1  0  0  0  0
 14 15  2  0  0  0  0
 15 16  1  0  0  0  0
 15 26  1  0  0  0  0
 16 17  2  0  0  0  0
 16 21  1  0  0  0  0
 17 18  1  0  0  0  0
 17 25  1  0  0  0  0
 18 19  2  0  0  0  0
 18 24  1  0  0  0  0
 19 20  1  0  0  0  0
 19 23  1  0  0  0  0
 20 21  2  0  0  0  0
 20 22  1  0  0  0  0
 28 29  1  0  0  0  0
 28 46  1  0  0  0  0
 28 47  1  0  0  0  0
 29 30  1  0  0  0  0
 29 45  1  1  0  0  0
 30 31  1  0  0  0  0
 30 43  1  0  0  0  0
 30 44  1  0  0  0  0
 31 32  2  0  0  0  0
 31 33  2  0  0  0  0
 31 34  1  0  0  0  0
 34 35  1  0  0  0  0
 34 39  1  0  0  0  0
 35 36  1  0  0  0  0
 35 37  1  0  0  0  0
 35 38  1  0  0  0  0
 39 40  1  0  0  0  0
 39 41  1  0  0  0  0
 39 42  1  0  0  0  0
 48 49  2  0  0  0  0
 48 54  1  0  0  0  0
 49 50  1  0  0  0  0
 49 59  1  0  0  0  0
 50 51  1  0  0  0  0
 50 52  2  0  0  0  0
 52 53  1  0  0  0  0
 52 58  1  0  0  0  0
 53 54  2  0  0  0  0
 53 57  1  0  0  0  0
 54 55  1  0  0  0  0
 55 56  2  0  0  0  0
M  END
>  <MODEL>
       1

$$$$
best_conformers_41.pdb
 OpenBabel01292518153D

 67 71  0  0  1  0  0  0  0  0999 V2000
   -6.8700    2.5930  -23.6160 C   0  0  0  0  0  0  0  0  0  0  0  0
   -7.5820    1.7190  -24.5270 N   0  0  0  0  0  0  0  0  0  0  0  0
   -6.9460    0.6140  -24.9870 C   0  0  0  0  0  0  0  0  0  0  0  0
   -5.7650    0.3850  -24.7630 O   0  0  0  0  0  0  0  0  0  0  0  0
   -7.8230   -0.3500  -25.7900 C   0  0  0  0  0  0  0  0  0  0  0  0
   -8.5500   -1.2210  -24.8860 N   0  0  0  0  0  0  0  0  0  0  0  0
   -7.9050   -2.4030  -24.3250 C   0  0  0  0  0  0  0  0  0  0  0  0
   -8.2200   -2.5980  -22.8110 C   0  0  2  0  0  0  0  0  0  0  0  0
   -7.6070   -1.3980  -22.0380 C   0  0  0  0  0  0  0  0  0  0  0  0
   -7.8760   -0.2200  -22.1500 O   0  0  0  0  0  0  0  0  0  0  0  0
   -6.6630   -1.8770  -21.1580 N   0  0  0  0  0  0  0  0  0  0  0  0
   -6.1110   -1.0930  -20.1280 C   0  0  0  0  0  0  0  0  0  0  0  0
   -6.5140   -1.2630  -18.8280 C   0  0  0  0  0  0  0  0  0  0  0  0
   -6.0470   -0.5410  -17.7840 N   0  0  0  0  0  0  0  0  0  0  0  0
   -5.1210    0.3560  -18.0510 C   0  0  0  0  0  0  0  0  0  0  0  0
   -4.5850    0.5990  -19.3550 C   0  0  0  0  0  0  0  0  0  0  0  0
   -3.5810    1.5730  -19.6250 C   0  0  0  0  0  0  0  0  0  0  0  0
   -3.0960    1.7410  -20.8950 C   0  0  0  0  0  0  0  0  0  0  0  0
   -3.5760    0.9540  -21.9660 C   0  0  0  0  0  0  0  0  0  0  0  0
   -4.5430    0.0080  -21.7370 C   0  0  0  0  0  0  0  0  0  0  0  0
   -5.0800   -0.1660  -20.4320 C   0  0  0  0  0  0  0  0  0  0  0  0
   -4.9130   -0.5960  -22.5590 H   0  0  0  0  0  0  0  0  0  0  0  0
   -3.2030    1.1050  -22.9760 H   0  0  0  0  0  0  0  0  0  0  0  0
   -2.3320    2.4870  -21.0940 H   0  0  0  0  0  0  0  0  0  0  0  0
   -3.2130    2.1840  -18.8060 H   0  0  0  0  0  0  0  0  0  0  0  0
   -4.7520    0.9380  -17.2070 H   0  0  0  0  0  0  0  0  0  0  0  0
   -7.2820   -2.0040  -18.5980 H   0  0  0  0  0  0  0  0  0  0  0  0
   -6.6360   -3.3000  -21.0120 C   0  0  0  0  0  0  0  0  0  0  0  0
   -7.4660   -3.8290  -22.1970 C   0  0  2  0  0  0  0  0  0  0  0  0
   -6.5140   -4.5720  -23.1630 C   0  0  0  0  0  0  0  0  0  0  0  0
   -5.8530   -6.0560  -22.4000 S   0  0  0  0  0  0  0  0  0  0  0  0
   -4.6870   -5.7160  -21.5860 O   0  0  0  0  0  0  0  0  0  0  0  0
   -6.9700   -6.7530  -21.7750 O   0  0  0  0  0  0  0  0  0  0  0  0
   -5.3560   -6.9760  -23.7350 N   0  0  0  0  0  0  0  0  0  0  0  0
   -4.2490   -6.4190  -24.5150 C   0  0  0  0  0  0  0  0  0  0  0  0
   -3.3510   -6.2380  -23.9080 H   0  0  0  0  0  0  0  0  0  0  0  0
   -4.5490   -5.5020  -25.0270 H   0  0  0  0  0  0  0  0  0  0  0  0
   -4.0100   -7.1490  -25.2930 H   0  0  0  0  0  0  0  0  0  0  0  0
   -5.0170   -8.3340  -23.2940 C   0  0  0  0  0  0  0  0  0  0  0  0
   -5.8610   -8.7710  -22.7590 H   0  0  0  0  0  0  0  0  0  0  0  0
   -4.1240   -8.3250  -22.6530 H   0  0  0  0  0  0  0  0  0  0  0  0
   -4.8150   -8.9420  -24.1800 H   0  0  0  0  0  0  0  0  0  0  0  0
   -7.0370   -4.9010  -24.0650 H   0  0  0  0  0  0  0  0  0  0  0  0
   -5.6560   -3.9410  -23.4290 H   0  0  0  0  0  0  0  0  0  0  0  0
   -8.1780   -4.5820  -21.8630 H   0  0  0  0  0  0  0  0  0  0  0  0
   -5.6040   -3.6650  -20.9860 H   0  0  0  0  0  0  0  0  0  0  0  0
   -7.0620   -3.5500  -20.0490 H   0  0  0  0  0  0  0  0  0  0  0  0
   -9.7560   -2.5810  -22.6890 C   0  0  0  0  0  0  0  0  0  0  0  0
  -10.5190   -3.3210  -21.7680 C   0  0  0  0  0  0  0  0  0  0  0  0
  -11.8940   -3.1300  -21.7180 C   0  0  0  0  0  0  0  0  0  0  0  0
  -12.6290   -3.7570  -20.7830 F   0  0  0  0  0  0  0  0  0  0  0  0
  -12.5880   -2.2770  -22.5640 C   0  0  0  0  0  0  0  0  0  0  0  0
  -11.8420   -1.5320  -23.4480 C   0  0  0  0  0  0  0  0  0  0  0  0
  -10.4580   -1.6620  -23.4910 C   0  0  0  0  0  0  0  0  0  0  0  0
   -9.7570   -0.7740  -24.4590 C   0  0  0  0  0  0  0  0  0  0  0  0
  -10.2620    0.2720  -24.8710 O   0  0  0  0  0  0  0  0  0  0  0  0
  -12.3200   -0.8300  -24.1210 H   0  0  0  0  0  0  0  0  0  0  0  0
  -13.6710   -2.2150  -22.5090 H   0  0  0  0  0  0  0  0  0  0  0  0
  -10.0640   -4.0260  -21.0780 H   0  0  0  0  0  0  0  0  0  0  0  0
   -8.2630   -3.2910  -24.8620 H   0  0  0  0  0  0  0  0  0  0  0  0
   -6.8250   -2.2890  -24.4700 H   0  0  0  0  0  0  0  0  0  0  0  0
   -8.5580    0.1980  -26.3830 H   0  0  0  0  0  0  0  0  0  0  0  0
   -7.2020   -0.9380  -26.4710 H   0  0  0  0  0  0  0  0  0  0  0  0
   -8.5940    1.6920  -24.4900 H   0  0  0  0  0  0  0  0  0  0  0  0
   -6.0210    3.0490  -24.1330 H   0  0  0  0  0  0  0  0  0  0  0  0
   -6.4910    2.0330  -22.7520 H   0  0  0  0  0  0  0  0  0  0  0  0
   -7.5410    3.3820  -23.2720 H   0  0  0  0  0  0  0  0  0  0  0  0
  1  2  1  0  0  0  0
  1 65  1  0  0  0  0
  1 66  1  0  0  0  0
  1 67  1  0  0  0  0
  2  3  1  0  0  0  0
  2 64  1  0  0  0  0
  3  4  2  0  0  0  0
  3  5  1  0  0  0  0
  5  6  1  0  0  0  0
  5 62  1  0  0  0  0
  5 63  1  0  0  0  0
  6  7  1  0  0  0  0
  6 55  1  0  0  0  0
  7  8  1  0  0  0  0
  7 60  1  0  0  0  0
  7 61  1  0  0  0  0
  8  9  1  1  0  0  0
  8 29  1  0  0  0  0
  8 48  1  0  0  0  0
  9 10  2  0  0  0  0
  9 11  1  0  0  0  0
 11 12  1  0  0  0  0
 11 28  1  0  0  0  0
 12 13  2  0  0  0  0
 12 21  1  0  0  0  0
 13 14  1  0  0  0  0
 13 27  1  0  0  0  0
 14 15  2  0  0  0  0
 15 16  1  0  0  0  0
 15 26  1  0  0  0  0
 16 17  2  0  0  0  0
 16 21  1  0  0  0  0
 17 18  1  0  0  0  0
 17 25  1  0  0  0  0
 18 19  2  0  0  0  0
 18 24  1  0  0  0  0
 19 20  1  0  0  0  0
 19 23  1  0  0  0  0
 20 21  2  0  0  0  0
 20 22  1  0  0  0  0
 28 29  1  0  0  0  0
 28 46  1  0  0  0  0
 28 47  1  0  0  0  0
 29 30  1  0  0  0  0
 29 45  1  1  0  0  0
 30 31  1  0  0  0  0
 30 43  1  0  0  0  0
 30 44  1  0  0  0  0
 31 32  2  0  0  0  0
 31 33  2  0  0  0  0
 31 34  1  0  0  0  0
 34 35  1  0  0  0  0
 34 39  1  0  0  0  0
 35 36  1  0  0  0  0
 35 37  1  0  0  0  0
 35 38  1  0  0  0  0
 39 40  1  0  0  0  0
 39 41  1  0  0  0  0
 39 42  1  0  0  0  0
 48 49  2  0  0  0  0
 48 54  1  0  0  0  0
 49 50  1  0  0  0  0
 49 59  1  0  0  0  0
 50 51  1  0  0  0  0
 50 52  2  0  0  0  0
 52 53  1  0  0  0  0
 52 58  1  0  0  0  0
 53 54  2  0  0  0  0
 53 57  1  0  0  0  0
 54 55  1  0  0  0  0
 55 56  2  0  0  0  0
M  END
>  <MODEL>
       2

$$$$
