best_conformers_96.pdb
 OpenBabel01292518153D

 66 70  0  0  1  0  0  0  0  0999 V2000
   -6.9800   -1.5490  -29.4570 C   0  0  0  0  0  0  0  0  0  0  0  0
   -7.0730   -2.6120  -28.4810 N   0  0  0  0  0  0  0  0  0  0  0  0
   -6.3350   -2.5300  -27.3470 C   0  0  0  0  0  0  0  0  0  0  0  0
   -5.5770   -1.6000  -27.1090 O   0  0  0  0  0  0  0  0  0  0  0  0
   -6.5630   -3.6800  -26.3610 C   0  0  0  0  0  0  0  0  0  0  0  0
   -7.5140   -3.2920  -25.3340 N   0  0  0  0  0  0  0  0  0  0  0  0
   -7.0510   -2.4450  -24.2390 C   0  0  0  0  0  0  0  0  0  0  0  0
   -7.8560   -2.6960  -22.9490 C   0  0  2  0  0  0  0  0  0  0  0  0
   -7.5160   -1.5550  -21.9840 C   0  0  0  0  0  0  0  0  0  0  0  0
   -7.8130   -0.3870  -22.1030 O   0  0  0  0  0  0  0  0  0  0  0  0
   -6.7340   -2.0550  -20.9660 N   0  0  0  0  0  0  0  0  0  0  0  0
   -6.1540   -1.2030  -20.0050 C   0  0  0  0  0  0  0  0  0  0  0  0
   -6.5390   -1.3160  -18.6970 C   0  0  0  0  0  0  0  0  0  0  0  0
   -6.0540   -0.5570  -17.6860 N   0  0  0  0  0  0  0  0  0  0  0  0
   -5.1410    0.3330  -18.0030 C   0  0  0  0  0  0  0  0  0  0  0  0
   -4.6370    0.5330  -19.3200 C   0  0  0  0  0  0  0  0  0  0  0  0
   -3.6430    1.5060  -19.5990 C   0  0  0  0  0  0  0  0  0  0  0  0
   -3.1510    1.6540  -20.8660 C   0  0  0  0  0  0  0  0  0  0  0  0
   -3.6330    0.8390  -21.9170 C   0  0  0  0  0  0  0  0  0  0  0  0
   -4.6050   -0.0970  -21.6790 C   0  0  0  0  0  0  0  0  0  0  0  0
   -5.1440   -0.2630  -20.3680 C   0  0  0  0  0  0  0  0  0  0  0  0
   -4.9800   -0.7050  -22.4990 H   0  0  0  0  0  0  0  0  0  0  0  0
   -3.2330    0.9650  -22.9190 H   0  0  0  0  0  0  0  0  0  0  0  0
   -2.3860    2.3970  -21.0730 H   0  0  0  0  0  0  0  0  0  0  0  0
   -3.2870    2.1230  -18.7800 H   0  0  0  0  0  0  0  0  0  0  0  0
   -4.7500    0.9510  -17.1950 H   0  0  0  0  0  0  0  0  0  0  0  0
   -7.2960   -2.0530  -18.4290 H   0  0  0  0  0  0  0  0  0  0  0  0
   -6.3280   -3.4370  -21.1400 C   0  0  0  0  0  0  0  0  0  0  0  0
   -7.3970   -3.9510  -22.1080 C   0  0  2  0  0  0  0  0  0  0  0  0
   -7.0170   -5.2330  -22.8380 C   0  0  0  0  0  0  0  0  0  0  0  0
   -5.6960   -5.1550  -23.3360 O   0  0  0  0  0  0  0  0  0  0  0  0
   -5.0780   -6.4130  -23.5810 C   0  0  0  0  0  0  0  0  0  0  0  0
   -5.6990   -7.1090  -24.7860 C   0  0  0  0  0  0  0  0  0  0  0  0
   -6.7390   -7.3890  -24.5940 H   0  0  0  0  0  0  0  0  0  0  0  0
   -5.6750   -6.4550  -25.6660 H   0  0  0  0  0  0  0  0  0  0  0  0
   -5.1430   -8.0220  -25.0240 H   0  0  0  0  0  0  0  0  0  0  0  0
   -3.5950   -6.1330  -23.7720 C   0  0  0  0  0  0  0  0  0  0  0  0
   -3.1170   -5.8470  -22.8300 H   0  0  0  0  0  0  0  0  0  0  0  0
   -3.4790   -5.3170  -24.4930 H   0  0  0  0  0  0  0  0  0  0  0  0
   -3.0720   -7.0130  -24.1600 H   0  0  0  0  0  0  0  0  0  0  0  0
   -5.2140   -7.0510  -22.6920 H   0  0  0  0  0  0  0  0  0  0  0  0
   -7.1060   -6.0820  -22.1390 H   0  0  0  0  0  0  0  0  0  0  0  0
   -7.7320   -5.4000  -23.6530 H   0  0  0  0  0  0  0  0  0  0  0  0
   -8.2810   -4.1920  -21.5070 H   0  0  0  0  0  0  0  0  0  0  0  0
   -5.3110   -3.5180  -21.5540 H   0  0  0  0  0  0  0  0  0  0  0  0
   -6.3340   -3.9610  -20.1790 H   0  0  0  0  0  0  0  0  0  0  0  0
   -9.3420   -2.7400  -23.2880 C   0  0  0  0  0  0  0  0  0  0  0  0
  -10.3030   -2.4970  -22.2920 C   0  0  0  0  0  0  0  0  0  0  0  0
  -11.6200   -2.8910  -22.4810 C   0  0  0  0  0  0  0  0  0  0  0  0
  -12.8140   -2.7400  -21.2170 Cl  0  0  0  0  0  0  0  0  0  0  0  0
  -12.0250   -3.4630  -23.6810 C   0  0  0  0  0  0  0  0  0  0  0  0
  -11.1220   -3.5630  -24.7180 C   0  0  0  0  0  0  0  0  0  0  0  0
   -9.7890   -3.1990  -24.5290 C   0  0  0  0  0  0  0  0  0  0  0  0
   -8.8350   -3.4090  -25.6500 C   0  0  0  0  0  0  0  0  0  0  0  0
   -9.2050   -3.7050  -26.7880 O   0  0  0  0  0  0  0  0  0  0  0  0
  -11.4180   -3.9440  -25.6870 H   0  0  0  0  0  0  0  0  0  0  0  0
  -13.0430   -3.8100  -23.7990 H   0  0  0  0  0  0  0  0  0  0  0  0
  -10.0390   -2.0170  -21.3590 H   0  0  0  0  0  0  0  0  0  0  0  0
   -5.9890   -2.6530  -24.0710 H   0  0  0  0  0  0  0  0  0  0  0  0
   -7.1370   -1.3780  -24.4890 H   0  0  0  0  0  0  0  0  0  0  0  0
   -5.6290   -3.9490  -25.8630 H   0  0  0  0  0  0  0  0  0  0  0  0
   -6.9560   -4.5630  -26.8820 H   0  0  0  0  0  0  0  0  0  0  0  0
   -7.9050   -3.1900  -28.4490 H   0  0  0  0  0  0  0  0  0  0  0  0
   -7.6210   -1.7950  -30.3040 H   0  0  0  0  0  0  0  0  0  0  0  0
   -7.2840   -0.5830  -29.0350 H   0  0  0  0  0  0  0  0  0  0  0  0
   -5.9460   -1.4560  -29.8030 H   0  0  0  0  0  0  0  0  0  0  0  0
  1  2  1  0  0  0  0
  1 64  1  0  0  0  0
  1 65  1  0  0  0  0
  1 66  1  0  0  0  0
  2  3  1  0  0  0  0
  2 63  1  0  0  0  0
  3  4  2  0  0  0  0
  3  5  1  0  0  0  0
  5  6  1  0  0  0  0
  5 61  1  0  0  0  0
  5 62  1  0  0  0  0
  6  7  1  0  0  0  0
  6 54  1  0  0  0  0
  7  8  1  0  0  0  0
  7 59  1  0  0  0  0
  7 60  1  0  0  0  0
  8  9  1  1  0  0  0
  8 29  1  0  0  0  0
  8 47  1  0  0  0  0
  9 10  2  0  0  0  0
  9 11  1  0  0  0  0
 11 12  1  0  0  0  0
 11 28  1  0  0  0  0
 12 13  2  0  0  0  0
 12 21  1  0  0  0  0
 13 14  1  0  0  0  0
 13 27  1  0  0  0  0
 14 15  2  0  0  0  0
 15 16  1  0  0  0  0
 15 26  1  0  0  0  0
 16 17  2  0  0  0  0
 16 21  1  0  0  0  0
 17 18  1  0  0  0  0
 17 25  1  0  0  0  0
 18 19  2  0  0  0  0
 18 24  1  0  0  0  0
 19 20  1  0  0  0  0
 19 23  1  0  0  0  0
 20 21  2  0  0  0  0
 20 22  1  0  0  0  0
 28 29  1  0  0  0  0
 28 45  1  0  0  0  0
 28 46  1  0  0  0  0
 29 30  1  0  0  0  0
 29 44  1  1  0  0  0
 30 31  1  0  0  0  0
 30 42  1  0  0  0  0
 30 43  1  0  0  0  0
 31 32  1  0  0  0  0
 32 33  1  0  0  0  0
 32 37  1  0  0  0  0
 32 41  1  0  0  0  0
 33 34  1  0  0  0  0
 33 35  1  0  0  0  0
 33 36  1  0  0  0  0
 37 38  1  0  0  0  0
 37 39  1  0  0  0  0
 37 40  1  0  0  0  0
 47 48  2  0  0  0  0
 47 53  1  0  0  0  0
 48 49  1  0  0  0  0
 48 58  1  0  0  0  0
 49 50  1  0  0  0  0
 49 51  2  0  0  0  0
 51 52  1  0  0  0  0
 51 57  1  0  0  0  0
 52 53  2  0  0  0  0
 52 56  1  0  0  0  0
 53 54  1  0  0  0  0
 54 55  2  0  0  0  0
M  END
>  <MODEL>
       1

$$$$
best_conformers_96.pdb
 OpenBabel01292518153D

 66 70  0  0  1  0  0  0  0  0999 V2000
   -8.0850   -1.0260  -29.6900 C   0  0  0  0  0  0  0  0  0  0  0  0
   -7.8540   -2.0680  -28.7090 N   0  0  0  0  0  0  0  0  0  0  0  0
   -7.2230   -1.7710  -27.5480 C   0  0  0  0  0  0  0  0  0  0  0  0
   -6.7720   -0.6590  -27.3110 O   0  0  0  0  0  0  0  0  0  0  0  0
   -7.0670   -2.9230  -26.5510 C   0  0  0  0  0  0  0  0  0  0  0  0
   -7.9480   -2.8210  -25.3990 N   0  0  0  0  0  0  0  0  0  0  0  0
   -7.5530   -2.0210  -24.2470 C   0  0  0  0  0  0  0  0  0  0  0  0
   -8.0550   -2.6200  -22.9000 C   0  0  2  0  0  0  0  0  0  0  0  0
   -7.7830   -1.5750  -21.7990 C   0  0  0  0  0  0  0  0  0  0  0  0
   -8.3180   -0.4930  -21.6610 O   0  0  0  0  0  0  0  0  0  0  0  0
   -6.7810   -2.0440  -20.9750 N   0  0  0  0  0  0  0  0  0  0  0  0
   -6.1790   -1.1920  -20.0070 C   0  0  0  0  0  0  0  0  0  0  0  0
   -6.5420   -1.2880  -18.6890 C   0  0  0  0  0  0  0  0  0  0  0  0
   -6.0230   -0.5300  -17.6860 N   0  0  0  0  0  0  0  0  0  0  0  0
   -5.1050    0.3490  -18.0130 C   0  0  0  0  0  0  0  0  0  0  0  0
   -4.6170    0.5450  -19.3390 C   0  0  0  0  0  0  0  0  0  0  0  0
   -3.6170    1.5100  -19.6410 C   0  0  0  0  0  0  0  0  0  0  0  0
   -3.1710    1.6670  -20.9240 C   0  0  0  0  0  0  0  0  0  0  0  0
   -3.6960    0.8650  -21.9620 C   0  0  0  0  0  0  0  0  0  0  0  0
   -4.6630   -0.0730  -21.6960 C   0  0  0  0  0  0  0  0  0  0  0  0
   -5.1600   -0.2510  -20.3730 C   0  0  0  0  0  0  0  0  0  0  0  0
   -5.0620   -0.6830  -22.5020 H   0  0  0  0  0  0  0  0  0  0  0  0
   -3.3450    1.0070  -22.9790 H   0  0  0  0  0  0  0  0  0  0  0  0
   -2.4200    2.4180  -21.1530 H   0  0  0  0  0  0  0  0  0  0  0  0
   -3.2320    2.1250  -18.8320 H   0  0  0  0  0  0  0  0  0  0  0  0
   -4.7040    0.9640  -17.2070 H   0  0  0  0  0  0  0  0  0  0  0  0
   -7.2950   -2.0110  -18.3820 H   0  0  0  0  0  0  0  0  0  0  0  0
   -6.2070   -3.3100  -21.3950 C   0  0  0  0  0  0  0  0  0  0  0  0
   -7.2450   -3.8600  -22.3890 C   0  0  2  0  0  0  0  0  0  0  0  0
   -6.6290   -4.7350  -23.4770 C   0  0  0  0  0  0  0  0  0  0  0  0
   -6.0450   -5.8780  -22.8790 O   0  0  0  0  0  0  0  0  0  0  0  0
   -5.2820   -6.6630  -23.7970 C   0  0  0  0  0  0  0  0  0  0  0  0
   -5.5120   -8.1250  -23.4580 C   0  0  0  0  0  0  0  0  0  0  0  0
   -4.9840   -8.7700  -24.1690 H   0  0  0  0  0  0  0  0  0  0  0  0
   -5.1460   -8.3370  -22.4500 H   0  0  0  0  0  0  0  0  0  0  0  0
   -6.5840   -8.3340  -23.4860 H   0  0  0  0  0  0  0  0  0  0  0  0
   -3.8060   -6.2900  -23.7180 C   0  0  0  0  0  0  0  0  0  0  0  0
   -3.6640   -5.2460  -24.0020 H   0  0  0  0  0  0  0  0  0  0  0  0
   -3.2140   -6.9060  -24.4030 H   0  0  0  0  0  0  0  0  0  0  0  0
   -3.4390   -6.4440  -22.6980 H   0  0  0  0  0  0  0  0  0  0  0  0
   -5.6490   -6.4580  -24.8180 H   0  0  0  0  0  0  0  0  0  0  0  0
   -7.4030   -5.0460  -24.1930 H   0  0  0  0  0  0  0  0  0  0  0  0
   -5.8660   -4.1770  -24.0430 H   0  0  0  0  0  0  0  0  0  0  0  0
   -7.9520   -4.4890  -21.8350 H   0  0  0  0  0  0  0  0  0  0  0  0
   -5.2230   -3.1620  -21.8680 H   0  0  0  0  0  0  0  0  0  0  0  0
   -6.0590   -3.9660  -20.5330 H   0  0  0  0  0  0  0  0  0  0  0  0
   -9.5380   -2.9340  -23.0580 C   0  0  0  0  0  0  0  0  0  0  0  0
  -10.3670   -3.0150  -21.9230 C   0  0  0  0  0  0  0  0  0  0  0  0
  -11.7080   -3.3390  -22.0820 C   0  0  0  0  0  0  0  0  0  0  0  0
  -12.8730   -3.3900  -20.7840 Cl  0  0  0  0  0  0  0  0  0  0  0  0
  -12.2230   -3.6380  -23.3380 C   0  0  0  0  0  0  0  0  0  0  0  0
  -11.4100   -3.5900  -24.4520 C   0  0  0  0  0  0  0  0  0  0  0  0
  -10.0720   -3.2340  -24.3220 C   0  0  0  0  0  0  0  0  0  0  0  0
   -9.2360   -3.2340  -25.5640 C   0  0  0  0  0  0  0  0  0  0  0  0
   -9.6630   -3.5960  -26.6580 O   0  0  0  0  0  0  0  0  0  0  0  0
  -11.7840   -3.8370  -25.4410 H   0  0  0  0  0  0  0  0  0  0  0  0
  -13.2670   -3.9130  -23.4020 H   0  0  0  0  0  0  0  0  0  0  0  0
   -9.9480   -2.8120  -20.9420 H   0  0  0  0  0  0  0  0  0  0  0  0
   -6.4560   -1.9420  -24.2520 H   0  0  0  0  0  0  0  0  0  0  0  0
   -7.9670   -1.0050  -24.3300 H   0  0  0  0  0  0  0  0  0  0  0  0
   -7.2270   -3.8950  -27.0280 H   0  0  0  0  0  0  0  0  0  0  0  0
   -6.0380   -2.8670  -26.1840 H   0  0  0  0  0  0  0  0  0  0  0  0
   -8.2390   -2.9920  -28.8520 H   0  0  0  0  0  0  0  0  0  0  0  0
   -8.6330   -1.4590  -30.5290 H   0  0  0  0  0  0  0  0  0  0  0  0
   -7.1370   -0.6030  -30.0490 H   0  0  0  0  0  0  0  0  0  0  0  0
   -8.6720   -0.2050  -29.2570 H   0  0  0  0  0  0  0  0  0  0  0  0
  1  2  1  0  0  0  0
  1 64  1  0  0  0  0
  1 65  1  0  0  0  0
  1 66  1  0  0  0  0
  2  3  1  0  0  0  0
  2 63  1  0  0  0  0
  3  4  2  0  0  0  0
  3  5  1  0  0  0  0
  5  6  1  0  0  0  0
  5 61  1  0  0  0  0
  5 62  1  0  0  0  0
  6  7  1  0  0  0  0
  6 54  1  0  0  0  0
  7  8  1  0  0  0  0
  7 59  1  0  0  0  0
  7 60  1  0  0  0  0
  8  9  1  1  0  0  0
  8 29  1  0  0  0  0
  8 47  1  0  0  0  0
  9 10  2  0  0  0  0
  9 11  1  0  0  0  0
 11 12  1  0  0  0  0
 11 28  1  0  0  0  0
 12 13  2  0  0  0  0
 12 21  1  0  0  0  0
 13 14  1  0  0  0  0
 13 27  1  0  0  0  0
 14 15  2  0  0  0  0
 15 16  1  0  0  0  0
 15 26  1  0  0  0  0
 16 17  2  0  0  0  0
 16 21  1  0  0  0  0
 17 18  1  0  0  0  0
 17 25  1  0  0  0  0
 18 19  2  0  0  0  0
 18 24  1  0  0  0  0
 19 20  1  0  0  0  0
 19 23  1  0  0  0  0
 20 21  2  0  0  0  0
 20 22  1  0  0  0  0
 28 29  1  0  0  0  0
 28 45  1  0  0  0  0
 28 46  1  0  0  0  0
 29 30  1  0  0  0  0
 29 44  1  1  0  0  0
 30 31  1  0  0  0  0
 30 42  1  0  0  0  0
 30 43  1  0  0  0  0
 31 32  1  0  0  0  0
 32 33  1  0  0  0  0
 32 37  1  0  0  0  0
 32 41  1  0  0  0  0
 33 34  1  0  0  0  0
 33 35  1  0  0  0  0
 33 36  1  0  0  0  0
 37 38  1  0  0  0  0
 37 39  1  0  0  0  0
 37 40  1  0  0  0  0
 47 48  2  0  0  0  0
 47 53  1  0  0  0  0
 48 49  1  0  0  0  0
 48 58  1  0  0  0  0
 49 50  1  0  0  0  0
 49 51  2  0  0  0  0
 51 52  1  0  0  0  0
 51 57  1  0  0  0  0
 52 53  2  0  0  0  0
 52 56  1  0  0  0  0
 53 54  1  0  0  0  0
 54 55  2  0  0  0  0
M  END
>  <MODEL>
       2

$$$$
best_conformers_96.pdb
 OpenBabel01292518153D

 66 70  0  0  1  0  0  0  0  0999 V2000
   -6.9840   -1.4510  -29.4670 C   0  0  0  0  0  0  0  0  0  0  0  0
   -7.0500   -2.5900  -28.5750 N   0  0  0  0  0  0  0  0  0  0  0  0
   -6.4520   -2.4570  -27.3630 C   0  0  0  0  0  0  0  0  0  0  0  0
   -5.8340   -1.4470  -27.0460 O   0  0  0  0  0  0  0  0  0  0  0  0
   -6.6120   -3.6440  -26.4180 C   0  0  0  0  0  0  0  0  0  0  0  0
   -7.5420   -3.3190  -25.3570 N   0  0  0  0  0  0  0  0  0  0  0  0
   -7.0840   -2.4570  -24.2690 C   0  0  0  0  0  0  0  0  0  0  0  0
   -7.8650   -2.7080  -22.9590 C   0  0  2  0  0  0  0  0  0  0  0  0
   -7.5200   -1.5660  -22.0000 C   0  0  0  0  0  0  0  0  0  0  0  0
   -7.8380   -0.3950  -22.1110 O   0  0  0  0  0  0  0  0  0  0  0  0
   -6.7370   -2.0600  -20.9800 N   0  0  0  0  0  0  0  0  0  0  0  0
   -6.1550   -1.2100  -20.0190 C   0  0  0  0  0  0  0  0  0  0  0  0
   -6.5380   -1.3220  -18.7090 C   0  0  0  0  0  0  0  0  0  0  0  0
   -6.0580   -0.5610  -17.6970 N   0  0  0  0  0  0  0  0  0  0  0  0
   -5.1440    0.3280  -18.0160 C   0  0  0  0  0  0  0  0  0  0  0  0
   -4.6410    0.5270  -19.3340 C   0  0  0  0  0  0  0  0  0  0  0  0
   -3.6450    1.4990  -19.6080 C   0  0  0  0  0  0  0  0  0  0  0  0
   -3.1560    1.6510  -20.8760 C   0  0  0  0  0  0  0  0  0  0  0  0
   -3.6380    0.8410  -21.9290 C   0  0  0  0  0  0  0  0  0  0  0  0
   -4.6080   -0.0960  -21.6920 C   0  0  0  0  0  0  0  0  0  0  0  0
   -5.1450   -0.2700  -20.3820 C   0  0  0  0  0  0  0  0  0  0  0  0
   -4.9800   -0.6980  -22.5170 H   0  0  0  0  0  0  0  0  0  0  0  0
   -3.2350    0.9670  -22.9290 H   0  0  0  0  0  0  0  0  0  0  0  0
   -2.3890    2.3910  -21.0790 H   0  0  0  0  0  0  0  0  0  0  0  0
   -3.2870    2.1140  -18.7870 H   0  0  0  0  0  0  0  0  0  0  0  0
   -4.7470    0.9440  -17.2100 H   0  0  0  0  0  0  0  0  0  0  0  0
   -7.2960   -2.0590  -18.4460 H   0  0  0  0  0  0  0  0  0  0  0  0
   -6.3430   -3.4450  -21.1390 C   0  0  0  0  0  0  0  0  0  0  0  0
   -7.4030   -3.9550  -22.1120 C   0  0  2  0  0  0  0  0  0  0  0  0
   -7.0220   -5.2280  -22.8470 C   0  0  0  0  0  0  0  0  0  0  0  0
   -5.7610   -5.0920  -23.4720 O   0  0  0  0  0  0  0  0  0  0  0  0
   -5.0090   -6.2940  -23.5970 C   0  0  0  0  0  0  0  0  0  0  0  0
   -4.1660   -6.5110  -22.3470 C   0  0  0  0  0  0  0  0  0  0  0  0
   -3.5920   -7.4400  -22.4320 H   0  0  0  0  0  0  0  0  0  0  0  0
   -3.4610   -5.6810  -22.2280 H   0  0  0  0  0  0  0  0  0  0  0  0
   -4.7860   -6.5710  -21.4450 H   0  0  0  0  0  0  0  0  0  0  0  0
   -4.1530   -6.1490  -24.8430 C   0  0  0  0  0  0  0  0  0  0  0  0
   -3.5460   -7.0470  -25.0060 H   0  0  0  0  0  0  0  0  0  0  0  0
   -4.7820   -5.9950  -25.7270 H   0  0  0  0  0  0  0  0  0  0  0  0
   -3.4880   -5.2860  -24.7290 H   0  0  0  0  0  0  0  0  0  0  0  0
   -5.7030   -7.1390  -23.7270 H   0  0  0  0  0  0  0  0  0  0  0  0
   -7.0080   -6.0610  -22.1270 H   0  0  0  0  0  0  0  0  0  0  0  0
   -7.7850   -5.4490  -23.6050 H   0  0  0  0  0  0  0  0  0  0  0  0
   -8.2800   -4.2050  -21.5060 H   0  0  0  0  0  0  0  0  0  0  0  0
   -6.3600   -3.9540  -20.1690 H   0  0  0  0  0  0  0  0  0  0  0  0
   -5.3260   -3.5460  -21.5490 H   0  0  0  0  0  0  0  0  0  0  0  0
   -9.3500   -2.7730  -23.2830 C   0  0  0  0  0  0  0  0  0  0  0  0
  -10.3060   -2.5240  -22.2900 C   0  0  0  0  0  0  0  0  0  0  0  0
  -11.6270   -2.8950  -22.4930 C   0  0  0  0  0  0  0  0  0  0  0  0
  -12.7960   -2.7220  -21.2230 Cl  0  0  0  0  0  0  0  0  0  0  0  0
  -12.0500   -3.4530  -23.6940 C   0  0  0  0  0  0  0  0  0  0  0  0
  -11.1360   -3.5780  -24.7190 C   0  0  0  0  0  0  0  0  0  0  0  0
   -9.8000   -3.2420  -24.5190 C   0  0  0  0  0  0  0  0  0  0  0  0
   -8.8630   -3.4960  -25.6480 C   0  0  0  0  0  0  0  0  0  0  0  0
   -9.2470   -3.8790  -26.7480 O   0  0  0  0  0  0  0  0  0  0  0  0
  -11.4250   -3.9510  -25.6940 H   0  0  0  0  0  0  0  0  0  0  0  0
  -13.0730   -3.8000  -23.7930 H   0  0  0  0  0  0  0  0  0  0  0  0
  -10.0080   -2.0580  -21.3590 H   0  0  0  0  0  0  0  0  0  0  0  0
   -6.0190   -2.6480  -24.1230 H   0  0  0  0  0  0  0  0  0  0  0  0
   -7.1850   -1.3930  -24.5300 H   0  0  0  0  0  0  0  0  0  0  0  0
   -6.9590   -4.5470  -26.9370 H   0  0  0  0  0  0  0  0  0  0  0  0
   -5.6530   -3.8570  -25.9490 H   0  0  0  0  0  0  0  0  0  0  0  0
   -7.8150   -3.2410  -28.6990 H   0  0  0  0  0  0  0  0  0  0  0  0
   -7.3880   -0.5470  -28.9950 H   0  0  0  0  0  0  0  0  0  0  0  0
   -7.5460   -1.6740  -30.3730 H   0  0  0  0  0  0  0  0  0  0  0  0
   -5.9430   -1.2520  -29.7370 H   0  0  0  0  0  0  0  0  0  0  0  0
  1  2  1  0  0  0  0
  1 64  1  0  0  0  0
  1 65  1  0  0  0  0
  1 66  1  0  0  0  0
  2  3  1  0  0  0  0
  2 63  1  0  0  0  0
  3  4  2  0  0  0  0
  3  5  1  0  0  0  0
  5  6  1  0  0  0  0
  5 61  1  0  0  0  0
  5 62  1  0  0  0  0
  6  7  1  0  0  0  0
  6 54  1  0  0  0  0
  7  8  1  0  0  0  0
  7 59  1  0  0  0  0
  7 60  1  0  0  0  0
  8  9  1  1  0  0  0
  8 29  1  0  0  0  0
  8 47  1  0  0  0  0
  9 10  2  0  0  0  0
  9 11  1  0  0  0  0
 11 12  1  0  0  0  0
 11 28  1  0  0  0  0
 12 13  2  0  0  0  0
 12 21  1  0  0  0  0
 13 14  1  0  0  0  0
 13 27  1  0  0  0  0
 14 15  2  0  0  0  0
 15 16  1  0  0  0  0
 15 26  1  0  0  0  0
 16 17  2  0  0  0  0
 16 21  1  0  0  0  0
 17 18  1  0  0  0  0
 17 25  1  0  0  0  0
 18 19  2  0  0  0  0
 18 24  1  0  0  0  0
 19 20  1  0  0  0  0
 19 23  1  0  0  0  0
 20 21  2  0  0  0  0
 20 22  1  0  0  0  0
 28 29  1  0  0  0  0
 28 45  1  0  0  0  0
 28 46  1  0  0  0  0
 29 30  1  0  0  0  0
 29 44  1  1  0  0  0
 30 31  1  0  0  0  0
 30 42  1  0  0  0  0
 30 43  1  0  0  0  0
 31 32  1  0  0  0  0
 32 33  1  0  0  0  0
 32 37  1  0  0  0  0
 32 41  1  0  0  0  0
 33 34  1  0  0  0  0
 33 35  1  0  0  0  0
 33 36  1  0  0  0  0
 37 38  1  0  0  0  0
 37 39  1  0  0  0  0
 37 40  1  0  0  0  0
 47 48  2  0  0  0  0
 47 53  1  0  0  0  0
 48 49  1  0  0  0  0
 48 58  1  0  0  0  0
 49 50  1  0  0  0  0
 49 51  2  0  0  0  0
 51 52  1  0  0  0  0
 51 57  1  0  0  0  0
 52 53  2  0  0  0  0
 52 56  1  0  0  0  0
 53 54  1  0  0  0  0
 54 55  2  0  0  0  0
M  END
>  <MODEL>
       3

$$$$
