best_conformers_90.pdb
 OpenBabel01292518153D

 64 68  0  0  1  0  0  0  0  0999 V2000
   -8.4580   -7.7460  -25.7360 C   0  0  0  0  0  0  0  0  0  0  0  0
   -9.0150   -6.4160  -25.8410 N   0  0  0  0  0  0  0  0  0  0  0  0
   -8.3890   -5.5030  -26.6180 C   0  0  0  0  0  0  0  0  0  0  0  0
   -7.3860   -5.7640  -27.2700 O   0  0  0  0  0  0  0  0  0  0  0  0
   -8.9980   -4.0940  -26.6070 C   0  0  0  0  0  0  0  0  0  0  0  0
   -9.2850   -3.5960  -25.2750 N   0  0  0  0  0  0  0  0  0  0  0  0
   -8.3620   -2.6390  -24.6680 C   0  0  0  0  0  0  0  0  0  0  0  0
   -8.5550   -2.5130  -23.1200 C   0  0  2  0  0  0  0  0  0  0  0  0
   -7.6340   -1.3890  -22.5520 C   0  0  0  0  0  0  0  0  0  0  0  0
   -7.4900   -0.2890  -23.0340 O   0  0  0  0  0  0  0  0  0  0  0  0
   -7.0180   -1.8530  -21.4010 N   0  0  0  0  0  0  0  0  0  0  0  0
   -6.3210   -1.1020  -20.4230 C   0  0  0  0  0  0  0  0  0  0  0  0
   -6.6210   -1.3120  -19.0880 C   0  0  0  0  0  0  0  0  0  0  0  0
   -6.1380   -0.6010  -18.0440 N   0  0  0  0  0  0  0  0  0  0  0  0
   -5.2480    0.3150  -18.3270 C   0  0  0  0  0  0  0  0  0  0  0  0
   -4.7470    0.5520  -19.6350 C   0  0  0  0  0  0  0  0  0  0  0  0
   -3.7320    1.5200  -19.8360 C   0  0  0  0  0  0  0  0  0  0  0  0
   -3.1670    1.6760  -21.0700 C   0  0  0  0  0  0  0  0  0  0  0  0
   -3.6020    0.8790  -22.1510 C   0  0  0  0  0  0  0  0  0  0  0  0
   -4.6170   -0.0390  -21.9980 C   0  0  0  0  0  0  0  0  0  0  0  0
   -5.2460   -0.1970  -20.7270 C   0  0  0  0  0  0  0  0  0  0  0  0
   -4.9330   -0.6440  -22.8440 H   0  0  0  0  0  0  0  0  0  0  0  0
   -3.1310    1.0050  -23.1210 H   0  0  0  0  0  0  0  0  0  0  0  0
   -2.3790    2.4100  -21.2170 H   0  0  0  0  0  0  0  0  0  0  0  0
   -3.4260    2.1220  -18.9830 H   0  0  0  0  0  0  0  0  0  0  0  0
   -4.8550    0.8980  -17.4970 H   0  0  0  0  0  0  0  0  0  0  0  0
   -7.2940   -2.1040  -18.7780 H   0  0  0  0  0  0  0  0  0  0  0  0
   -7.4390   -3.1940  -21.0510 C   0  0  0  0  0  0  0  0  0  0  0  0
   -8.0370   -3.7930  -22.3190 C   0  0  2  0  0  0  0  0  0  0  0  0
   -7.0900   -4.7840  -23.0200 C   0  0  0  0  0  0  0  0  0  0  0  0
   -5.3810   -4.2700  -23.0250 S   0  0  0  0  0  0  0  0  0  0  0  0
   -4.8160   -4.5290  -21.7040 O   0  0  0  0  0  0  0  0  0  0  0  0
   -5.3070   -2.9320  -23.6090 O   0  0  0  0  0  0  0  0  0  0  0  0
   -4.6670   -5.3880  -24.0330 N   0  0  0  0  0  0  0  0  0  0  0  0
   -4.7540   -5.1300  -25.4700 C   0  0  0  0  0  0  0  0  0  0  0  0
   -3.9820   -5.7130  -25.9760 H   0  0  0  0  0  0  0  0  0  0  0  0
   -4.6310   -4.0680  -25.7140 H   0  0  0  0  0  0  0  0  0  0  0  0
   -5.7270   -5.4690  -25.8380 H   0  0  0  0  0  0  0  0  0  0  0  0
   -3.7290   -5.5370  -23.6750 H   0  0  0  0  0  0  0  0  0  0  0  0
   -7.1150   -5.7540  -22.5110 H   0  0  0  0  0  0  0  0  0  0  0  0
   -7.4020   -4.9580  -24.0500 H   0  0  0  0  0  0  0  0  0  0  0  0
   -8.8920   -4.4280  -22.0500 H   0  0  0  0  0  0  0  0  0  0  0  0
   -8.2190   -3.0950  -20.3020 H   0  0  0  0  0  0  0  0  0  0  0  0
   -6.5990   -3.7580  -20.6530 H   0  0  0  0  0  0  0  0  0  0  0  0
  -10.0250   -2.3190  -22.9310 C   0  0  0  0  0  0  0  0  0  0  0  0
  -10.9130   -1.3350  -21.6590 C   0  0  0  0  0  0  0  0  0  0  0  0
  -11.0560   -1.4160  -21.9060 C   0  0  0  0  0  0  0  0  0  0  0  0
  -12.9850   -2.0470  -23.6020 F   0  0  0  0  0  0  0  0  0  0  0  0
  -12.1680   -2.7250  -21.5480 C   0  0  0  0  0  0  0  0  0  0  0  0
  -12.3170   -3.1360  -23.0060 C   0  0  0  0  0  0  0  0  0  0  0  0
  -10.9000   -3.1290  -23.5740 C   0  0  0  0  0  0  0  0  0  0  0  0
  -10.5070   -3.9110  -24.7420 C   0  0  0  0  0  0  0  0  0  0  0  0
  -11.2180   -4.7940  -25.2410 O   0  0  0  0  0  0  0  0  0  0  0  0
  -12.8580   -4.0690  -23.2500 H   0  0  0  0  0  0  0  0  0  0  0  0
  -13.1670   -2.3050  -21.3450 H   0  0  0  0  0  0  0  0  0  0  0  0
   -9.9780   -0.6330  -21.5240 H   0  0  0  0  0  0  0  0  0  0  0  0
   -8.4790   -1.6490  -25.1260 H   0  0  0  0  0  0  0  0  0  0  0  0
   -7.3420   -2.9420  -24.8940 H   0  0  0  0  0  0  0  0  0  0  0  0
   -8.3090   -3.4150  -27.1160 H   0  0  0  0  0  0  0  0  0  0  0  0
   -9.9470   -4.1130  -27.1580 H   0  0  0  0  0  0  0  0  0  0  0  0
   -9.9740   -6.2310  -25.5670 H   0  0  0  0  0  0  0  0  0  0  0  0
   -8.5500   -8.2990  -26.6770 H   0  0  0  0  0  0  0  0  0  0  0  0
   -7.3930   -7.6670  -25.4930 H   0  0  0  0  0  0  0  0  0  0  0  0
   -8.9750   -8.2820  -24.9370 H   0  0  0  0  0  0  0  0  0  0  0  0
  1  2  1  0  0  0  0
  1 62  1  0  0  0  0
  1 63  1  0  0  0  0
  1 64  1  0  0  0  0
  2  3  1  0  0  0  0
  2 61  1  0  0  0  0
  3  4  2  0  0  0  0
  3  5  1  0  0  0  0
  5  6  1  0  0  0  0
  5 59  1  0  0  0  0
  5 60  1  0  0  0  0
  6  7  1  0  0  0  0
  6 52  1  0  0  0  0
  7  8  1  0  0  0  0
  7 57  1  0  0  0  0
  7 58  1  0  0  0  0
  8  9  1  1  0  0  0
  8 29  1  0  0  0  0
  8 45  1  0  0  0  0
  9 10  2  0  0  0  0
  9 11  1  0  0  0  0
 11 12  1  0  0  0  0
 11 28  1  0  0  0  0
 12 13  2  0  0  0  0
 12 21  1  0  0  0  0
 13 14  1  0  0  0  0
 13 27  1  0  0  0  0
 14 15  2  0  0  0  0
 15 16  1  0  0  0  0
 15 26  1  0  0  0  0
 16 17  2  0  0  0  0
 16 21  1  0  0  0  0
 17 18  1  0  0  0  0
 17 25  1  0  0  0  0
 18 19  2  0  0  0  0
 18 24  1  0  0  0  0
 19 20  1  0  0  0  0
 19 23  1  0  0  0  0
 20 21  2  0  0  0  0
 20 22  1  0  0  0  0
 28 29  1  0  0  0  0
 28 43  1  0  0  0  0
 28 44  1  0  0  0  0
 29 30  1  0  0  0  0
 29 42  1  1  0  0  0
 30 31  1  0  0  0  0
 30 40  1  0  0  0  0
 30 41  1  0  0  0  0
 31 32  2  0  0  0  0
 31 33  2  0  0  0  0
 31 34  1  0  0  0  0
 34 35  1  0  0  0  0
 34 39  1  0  0  0  0
 35 36  1  0  0  0  0
 35 37  1  0  0  0  0
 35 38  1  0  0  0  0
 45 46  2  0  0  0  0
 45 51  1  0  0  0  0
 46 47  1  0  0  0  0
 46 56  1  0  0  0  0
 47 48  1  0  0  0  0
 47 49  2  0  0  0  0
 49 50  1  0  0  0  0
 49 55  1  0  0  0  0
 50 51  2  0  0  0  0
 50 54  1  0  0  0  0
 51 52  1  0  0  0  0
 52 53  2  0  0  0  0
M  END
>  <MODEL>
       1

$$$$
