best_conformers_31.pdb
 OpenBabel01292518153D

 66 71  0  0  1  0  0  0  0  0999 V2000
   -6.2470   -0.6180  -28.5430 C   0  0  0  0  0  0  0  0  0  0  0  0
   -6.1430   -1.5170  -27.4120 N   0  0  0  0  0  0  0  0  0  0  0  0
   -6.7350   -2.7320  -27.5380 C   0  0  0  0  0  0  0  0  0  0  0  0
   -7.3020   -3.0250  -28.5700 O   0  0  0  0  0  0  0  0  0  0  0  0
   -6.7120   -3.6730  -26.3360 C   0  0  0  0  0  0  0  0  0  0  0  0
   -7.6490   -3.2780  -25.2990 N   0  0  0  0  0  0  0  0  0  0  0  0
   -7.2300   -2.3940  -24.2270 C   0  0  0  0  0  0  0  0  0  0  0  0
   -7.9410   -2.7220  -22.8930 C   0  0  2  0  0  0  0  0  0  0  0  0
   -7.5980   -1.5890  -21.9310 C   0  0  0  0  0  0  0  0  0  0  0  0
   -7.9490   -0.4260  -22.0050 O   0  0  0  0  0  0  0  0  0  0  0  0
   -6.7520   -2.0750  -20.9630 N   0  0  0  0  0  0  0  0  0  0  0  0
   -6.1560   -1.2190  -20.0160 C   0  0  0  0  0  0  0  0  0  0  0  0
   -6.5420   -1.3290  -18.7080 C   0  0  0  0  0  0  0  0  0  0  0  0
   -6.0610   -0.5680  -17.6970 N   0  0  0  0  0  0  0  0  0  0  0  0
   -5.1480    0.3190  -18.0190 C   0  0  0  0  0  0  0  0  0  0  0  0
   -4.6420    0.5160  -19.3360 C   0  0  0  0  0  0  0  0  0  0  0  0
   -3.6500    1.4920  -19.6120 C   0  0  0  0  0  0  0  0  0  0  0  0
   -3.1580    1.6440  -20.8770 C   0  0  0  0  0  0  0  0  0  0  0  0
   -3.6360    0.8330  -21.9310 C   0  0  0  0  0  0  0  0  0  0  0  0
   -4.6060   -0.1100  -21.6980 C   0  0  0  0  0  0  0  0  0  0  0  0
   -5.1450   -0.2820  -20.3860 C   0  0  0  0  0  0  0  0  0  0  0  0
   -4.9720   -0.7170  -22.5230 H   0  0  0  0  0  0  0  0  0  0  0  0
   -3.2320    0.9640  -22.9310 H   0  0  0  0  0  0  0  0  0  0  0  0
   -2.3940    2.3920  -21.0810 H   0  0  0  0  0  0  0  0  0  0  0  0
   -3.2960    2.1090  -18.7900 H   0  0  0  0  0  0  0  0  0  0  0  0
   -4.7540    0.9380  -17.2130 H   0  0  0  0  0  0  0  0  0  0  0  0
   -7.3030   -2.0650  -18.4510 H   0  0  0  0  0  0  0  0  0  0  0  0
   -6.3440   -3.4510  -21.1440 C   0  0  0  0  0  0  0  0  0  0  0  0
   -7.4110   -3.9750  -22.1010 C   0  0  2  0  0  0  0  0  0  0  0  0
   -6.9990   -5.2170  -22.8810 C   0  0  0  0  0  0  0  0  0  0  0  0
   -5.6880   -5.1090  -23.4740 N   0  0  0  0  0  0  0  0  0  0  0  0
   -5.1460   -6.0240  -24.3130 C   0  0  0  0  0  0  0  0  0  0  0  0
   -5.8060   -7.2150  -24.6750 C   0  0  0  0  0  0  0  0  0  0  0  0
   -5.1200   -8.0360  -25.5460 C   0  0  0  0  0  0  0  0  0  0  0  0
   -3.8970   -7.7600  -26.0110 N   0  0  0  0  0  0  0  0  0  0  0  0
   -3.3820   -6.6140  -25.5950 C   0  0  0  0  0  0  0  0  0  0  0  0
   -3.9310   -5.7120  -24.7920 N   0  0  0  0  0  0  0  0  0  0  0  0
   -2.3820   -6.3830  -25.9550 H   0  0  0  0  0  0  0  0  0  0  0  0
   -5.5590   -8.9690  -25.8950 H   0  0  0  0  0  0  0  0  0  0  0  0
   -6.7910   -7.4870  -24.3000 H   0  0  0  0  0  0  0  0  0  0  0  0
   -5.0760   -4.3290  -23.2750 H   0  0  0  0  0  0  0  0  0  0  0  0
   -7.7440   -5.3930  -23.6610 H   0  0  0  0  0  0  0  0  0  0  0  0
   -7.0400   -6.0830  -22.2070 H   0  0  0  0  0  0  0  0  0  0  0  0
   -8.2710   -4.2620  -21.4860 H   0  0  0  0  0  0  0  0  0  0  0  0
   -6.3250   -3.9820  -20.1870 H   0  0  0  0  0  0  0  0  0  0  0  0
   -5.3260   -3.5030  -21.5520 H   0  0  0  0  0  0  0  0  0  0  0  0
   -9.4360   -2.8080  -23.1680 C   0  0  0  0  0  0  0  0  0  0  0  0
  -10.3750   -2.5920  -22.1440 C   0  0  0  0  0  0  0  0  0  0  0  0
  -11.7050   -2.9320  -22.3530 C   0  0  0  0  0  0  0  0  0  0  0  0
  -12.8620   -2.8900  -21.0480 Cl  0  0  0  0  0  0  0  0  0  0  0  0
  -12.1590   -3.3700  -23.5950 C   0  0  0  0  0  0  0  0  0  0  0  0
  -11.2570   -3.4870  -24.6350 C   0  0  0  0  0  0  0  0  0  0  0  0
   -9.9030   -3.2430  -24.4120 C   0  0  0  0  0  0  0  0  0  0  0  0
   -8.9630   -3.5940  -25.5160 C   0  0  0  0  0  0  0  0  0  0  0  0
   -9.3460   -4.1660  -26.5240 O   0  0  0  0  0  0  0  0  0  0  0  0
  -11.5590   -3.7990  -25.6320 H   0  0  0  0  0  0  0  0  0  0  0  0
  -13.2020   -3.6500  -23.7050 H   0  0  0  0  0  0  0  0  0  0  0  0
  -10.0680   -2.1720  -21.1920 H   0  0  0  0  0  0  0  0  0  0  0  0
   -7.4770   -1.3450  -24.4490 H   0  0  0  0  0  0  0  0  0  0  0  0
   -6.1410   -2.4490  -24.1150 H   0  0  0  0  0  0  0  0  0  0  0  0
   -7.0340   -4.6510  -26.7000 H   0  0  0  0  0  0  0  0  0  0  0  0
   -5.7060   -3.7460  -25.9190 H   0  0  0  0  0  0  0  0  0  0  0  0
   -5.6580   -1.2470  -26.5760 H   0  0  0  0  0  0  0  0  0  0  0  0
   -5.7410    0.3230  -28.3300 H   0  0  0  0  0  0  0  0  0  0  0  0
   -5.8040   -1.0840  -29.4270 H   0  0  0  0  0  0  0  0  0  0  0  0
   -7.2990   -0.4220  -28.7670 H   0  0  0  0  0  0  0  0  0  0  0  0
  1  2  1  0  0  0  0
  1 64  1  0  0  0  0
  1 65  1  0  0  0  0
  1 66  1  0  0  0  0
  2  3  1  0  0  0  0
  2 63  1  0  0  0  0
  3  4  2  0  0  0  0
  3  5  1  0  0  0  0
  5  6  1  0  0  0  0
  5 61  1  0  0  0  0
  5 62  1  0  0  0  0
  6  7  1  0  0  0  0
  6 54  1  0  0  0  0
  7  8  1  0  0  0  0
  7 59  1  0  0  0  0
  7 60  1  0  0  0  0
  8  9  1  1  0  0  0
  8 29  1  0  0  0  0
  8 47  1  0  0  0  0
  9 10  2  0  0  0  0
  9 11  1  0  0  0  0
 11 12  1  0  0  0  0
 11 28  1  0  0  0  0
 12 13  2  0  0  0  0
 12 21  1  0  0  0  0
 13 14  1  0  0  0  0
 13 27  1  0  0  0  0
 14 15  2  0  0  0  0
 15 16  1  0  0  0  0
 15 26  1  0  0  0  0
 16 17  2  0  0  0  0
 16 21  1  0  0  0  0
 17 18  1  0  0  0  0
 17 25  1  0  0  0  0
 18 19  2  0  0  0  0
 18 24  1  0  0  0  0
 19 20  1  0  0  0  0
 19 23  1  0  0  0  0
 20 21  2  0  0  0  0
 20 22  1  0  0  0  0
 28 29  1  0  0  0  0
 28 45  1  0  0  0  0
 28 46  1  0  0  0  0
 29 30  1  0  0  0  0
 29 44  1  1  0  0  0
 30 31  1  0  0  0  0
 30 42  1  0  0  0  0
 30 43  1  0  0  0  0
 31 32  1  0  0  0  0
 31 41  1  0  0  0  0
 32 33  2  0  0  0  0
 32 37  1  0  0  0  0
 33 34  1  0  0  0  0
 33 40  1  0  0  0  0
 34 35  2  0  0  0  0
 34 39  1  0  0  0  0
 35 36  1  0  0  0  0
 36 37  2  0  0  0  0
 36 38  1  0  0  0  0
 47 48  2  0  0  0  0
 47 53  1  0  0  0  0
 48 49  1  0  0  0  0
 48 58  1  0  0  0  0
 49 50  1  0  0  0  0
 49 51  2  0  0  0  0
 51 52  1  0  0  0  0
 51 57  1  0  0  0  0
 52 53  2  0  0  0  0
 52 56  1  0  0  0  0
 53 54  1  0  0  0  0
 54 55  2  0  0  0  0
M  END
>  <MODEL>
       1

$$$$
best_conformers_31.pdb
 OpenBabel01292518153D

 66 71  0  0  1  0  0  0  0  0999 V2000
   -5.0400   -0.9800  -28.2340 C   0  0  0  0  0  0  0  0  0  0  0  0
   -5.3870   -1.8960  -27.1670 N   0  0  0  0  0  0  0  0  0  0  0  0
   -6.1690   -2.9760  -27.4280 C   0  0  0  0  0  0  0  0  0  0  0  0
   -6.5100   -3.2710  -28.5590 O   0  0  0  0  0  0  0  0  0  0  0  0
   -6.5960   -3.7850  -26.2000 C   0  0  0  0  0  0  0  0  0  0  0  0
   -7.5680   -3.1070  -25.3530 N   0  0  0  0  0  0  0  0  0  0  0  0
   -7.1560   -2.2260  -24.2670 C   0  0  0  0  0  0  0  0  0  0  0  0
   -7.9320   -2.4860  -22.9490 C   0  0  2  0  0  0  0  0  0  0  0  0
   -7.5640   -1.3830  -21.9470 C   0  0  0  0  0  0  0  0  0  0  0  0
   -7.8620   -0.2050  -22.0050 O   0  0  0  0  0  0  0  0  0  0  0  0
   -6.7670   -1.9270  -20.9590 N   0  0  0  0  0  0  0  0  0  0  0  0
   -6.1440   -1.1290  -19.9700 C   0  0  0  0  0  0  0  0  0  0  0  0
   -6.5070   -1.2650  -18.6560 C   0  0  0  0  0  0  0  0  0  0  0  0
   -6.0140   -0.5130  -17.6420 N   0  0  0  0  0  0  0  0  0  0  0  0
   -5.1060    0.3860  -17.9500 C   0  0  0  0  0  0  0  0  0  0  0  0
   -4.6010    0.5950  -19.2670 C   0  0  0  0  0  0  0  0  0  0  0  0
   -3.6020    1.5630  -19.5570 C   0  0  0  0  0  0  0  0  0  0  0  0
   -3.1130    1.7000  -20.8280 C   0  0  0  0  0  0  0  0  0  0  0  0
   -3.5910    0.8760  -21.8700 C   0  0  0  0  0  0  0  0  0  0  0  0
   -4.5610   -0.0590  -21.6180 C   0  0  0  0  0  0  0  0  0  0  0  0
   -5.1110   -0.2020  -20.3130 C   0  0  0  0  0  0  0  0  0  0  0  0
   -4.9210   -0.6940  -22.4220 H   0  0  0  0  0  0  0  0  0  0  0  0
   -3.1970    0.9900  -22.8750 H   0  0  0  0  0  0  0  0  0  0  0  0
   -2.3560    2.4480  -21.0480 H   0  0  0  0  0  0  0  0  0  0  0  0
   -3.2380    2.1950  -18.7520 H   0  0  0  0  0  0  0  0  0  0  0  0
   -4.7150    0.9930  -17.1330 H   0  0  0  0  0  0  0  0  0  0  0  0
   -7.2580   -2.0050  -18.3810 H   0  0  0  0  0  0  0  0  0  0  0  0
   -6.4010   -3.3100  -21.1930 C   0  0  0  0  0  0  0  0  0  0  0  0
   -7.4740   -3.7700  -22.1770 C   0  0  2  0  0  0  0  0  0  0  0  0
   -7.0520   -4.9390  -23.0580 C   0  0  0  0  0  0  0  0  0  0  0  0
   -6.7530   -6.1270  -22.2800 N   0  0  0  0  0  0  0  0  0  0  0  0
   -6.1450   -7.1700  -22.9300 C   0  0  0  0  0  0  0  0  0  0  0  0
   -5.2600   -6.9870  -24.0140 C   0  0  0  0  0  0  0  0  0  0  0  0
   -4.6810   -8.1250  -24.5360 C   0  0  0  0  0  0  0  0  0  0  0  0
   -4.9370   -9.3500  -24.0810 N   0  0  0  0  0  0  0  0  0  0  0  0
   -5.8180   -9.3930  -23.0800 C   0  0  0  0  0  0  0  0  0  0  0  0
   -6.4280   -8.3910  -22.4690 N   0  0  0  0  0  0  0  0  0  0  0  0
   -6.1110  -10.3900  -22.7590 H   0  0  0  0  0  0  0  0  0  0  0  0
   -4.0010   -8.0620  -25.3860 H   0  0  0  0  0  0  0  0  0  0  0  0
   -5.0400   -6.0160  -24.4460 H   0  0  0  0  0  0  0  0  0  0  0  0
   -7.5000   -6.4730  -21.6900 H   0  0  0  0  0  0  0  0  0  0  0  0
   -6.1270   -4.6790  -23.5740 H   0  0  0  0  0  0  0  0  0  0  0  0
   -7.8260   -5.1210  -23.8200 H   0  0  0  0  0  0  0  0  0  0  0  0
   -8.3470   -4.0800  -21.5890 H   0  0  0  0  0  0  0  0  0  0  0  0
   -5.3900   -3.3930  -21.6270 H   0  0  0  0  0  0  0  0  0  0  0  0
   -6.4190   -3.8740  -20.2550 H   0  0  0  0  0  0  0  0  0  0  0  0
   -9.4140   -2.5760  -23.2610 C   0  0  0  0  0  0  0  0  0  0  0  0
  -10.3630   -2.4180  -22.2390 C   0  0  0  0  0  0  0  0  0  0  0  0
  -11.6520   -2.8980  -22.4230 C   0  0  0  0  0  0  0  0  0  0  0  0
  -12.8040   -2.9310  -21.1150 Cl  0  0  0  0  0  0  0  0  0  0  0  0
  -12.0560   -3.4320  -23.6430 C   0  0  0  0  0  0  0  0  0  0  0  0
  -11.1530   -3.4950  -24.6850 C   0  0  0  0  0  0  0  0  0  0  0  0
   -9.8380   -3.0790  -24.4940 C   0  0  0  0  0  0  0  0  0  0  0  0
   -8.8860   -3.3580  -25.6100 C   0  0  0  0  0  0  0  0  0  0  0  0
   -9.2690   -3.8520  -26.6590 O   0  0  0  0  0  0  0  0  0  0  0  0
  -11.4210   -3.9060  -25.6530 H   0  0  0  0  0  0  0  0  0  0  0  0
  -13.0630   -3.8190  -23.7360 H   0  0  0  0  0  0  0  0  0  0  0  0
  -10.0990   -1.9560  -21.2960 H   0  0  0  0  0  0  0  0  0  0  0  0
   -7.3160   -1.1760  -24.5450 H   0  0  0  0  0  0  0  0  0  0  0  0
   -6.0830   -2.3550  -24.0750 H   0  0  0  0  0  0  0  0  0  0  0  0
   -5.7150   -4.0550  -25.5980 H   0  0  0  0  0  0  0  0  0  0  0  0
   -7.0590   -4.6930  -26.5870 H   0  0  0  0  0  0  0  0  0  0  0  0
   -5.0250   -1.7330  -26.2410 H   0  0  0  0  0  0  0  0  0  0  0  0
   -4.3490   -0.2330  -27.8400 H   0  0  0  0  0  0  0  0  0  0  0  0
   -4.5660   -1.5170  -29.0620 H   0  0  0  0  0  0  0  0  0  0  0  0
   -5.9360   -0.4760  -28.6150 H   0  0  0  0  0  0  0  0  0  0  0  0
  1  2  1  0  0  0  0
  1 64  1  0  0  0  0
  1 65  1  0  0  0  0
  1 66  1  0  0  0  0
  2  3  1  0  0  0  0
  2 63  1  0  0  0  0
  3  4  2  0  0  0  0
  3  5  1  0  0  0  0
  5  6  1  0  0  0  0
  5 61  1  0  0  0  0
  5 62  1  0  0  0  0
  6  7  1  0  0  0  0
  6 54  1  0  0  0  0
  7  8  1  0  0  0  0
  7 59  1  0  0  0  0
  7 60  1  0  0  0  0
  8  9  1  1  0  0  0
  8 29  1  0  0  0  0
  8 47  1  0  0  0  0
  9 10  2  0  0  0  0
  9 11  1  0  0  0  0
 11 12  1  0  0  0  0
 11 28  1  0  0  0  0
 12 13  2  0  0  0  0
 12 21  1  0  0  0  0
 13 14  1  0  0  0  0
 13 27  1  0  0  0  0
 14 15  2  0  0  0  0
 15 16  1  0  0  0  0
 15 26  1  0  0  0  0
 16 17  2  0  0  0  0
 16 21  1  0  0  0  0
 17 18  1  0  0  0  0
 17 25  1  0  0  0  0
 18 19  2  0  0  0  0
 18 24  1  0  0  0  0
 19 20  1  0  0  0  0
 19 23  1  0  0  0  0
 20 21  2  0  0  0  0
 20 22  1  0  0  0  0
 28 29  1  0  0  0  0
 28 45  1  0  0  0  0
 28 46  1  0  0  0  0
 29 30  1  0  0  0  0
 29 44  1  1  0  0  0
 30 31  1  0  0  0  0
 30 42  1  0  0  0  0
 30 43  1  0  0  0  0
 31 32  1  0  0  0  0
 31 41  1  0  0  0  0
 32 33  2  0  0  0  0
 32 37  1  0  0  0  0
 33 34  1  0  0  0  0
 33 40  1  0  0  0  0
 34 35  2  0  0  0  0
 34 39  1  0  0  0  0
 35 36  1  0  0  0  0
 36 37  2  0  0  0  0
 36 38  1  0  0  0  0
 47 48  2  0  0  0  0
 47 53  1  0  0  0  0
 48 49  1  0  0  0  0
 48 58  1  0  0  0  0
 49 50  1  0  0  0  0
 49 51  2  0  0  0  0
 51 52  1  0  0  0  0
 51 57  1  0  0  0  0
 52 53  2  0  0  0  0
 52 56  1  0  0  0  0
 53 54  1  0  0  0  0
 54 55  2  0  0  0  0
M  END
>  <MODEL>
       2

$$$$
