best_conformers_71.pdb
 OpenBabel01292518153D

 50 54  0  0  1  0  0  0  0  0999 V2000
   -7.0080   -5.2070  -22.8620 C   0  0  0  0  0  0  0  0  0  0  0  0
   -7.4990   -3.9780  -22.0910 C   0  0  1  0  0  0  0  0  0  0  0  0
   -6.4770   -3.4580  -21.0620 C   0  0  0  0  0  0  0  0  0  0  0  0
   -6.7790   -2.0410  -20.9640 N   0  0  0  0  0  0  0  0  0  0  0  0
   -6.1740   -1.1880  -20.0090 C   0  0  0  0  0  0  0  0  0  0  0  0
   -6.5320   -1.2920  -18.6890 C   0  0  0  0  0  0  0  0  0  0  0  0
   -6.0220   -0.5340  -17.6900 N   0  0  0  0  0  0  0  0  0  0  0  0
   -5.1080    0.3500  -18.0180 C   0  0  0  0  0  0  0  0  0  0  0  0
   -4.6160    0.5400  -19.3410 C   0  0  0  0  0  0  0  0  0  0  0  0
   -3.6110    1.5010  -19.6370 C   0  0  0  0  0  0  0  0  0  0  0  0
   -3.1400    1.6470  -20.9130 C   0  0  0  0  0  0  0  0  0  0  0  0
   -3.6440    0.8300  -21.9500 C   0  0  0  0  0  0  0  0  0  0  0  0
   -4.6160   -0.1030  -21.6890 C   0  0  0  0  0  0  0  0  0  0  0  0
   -5.1490   -0.2570  -20.3770 C   0  0  0  0  0  0  0  0  0  0  0  0
   -4.9980   -0.7180  -22.4970 H   0  0  0  0  0  0  0  0  0  0  0  0
   -3.2750    0.9560  -22.9630 H   0  0  0  0  0  0  0  0  0  0  0  0
   -2.3840    2.3950  -21.1370 H   0  0  0  0  0  0  0  0  0  0  0  0
   -3.2380    2.1210  -18.8260 H   0  0  0  0  0  0  0  0  0  0  0  0
   -4.7130    0.9650  -17.2110 H   0  0  0  0  0  0  0  0  0  0  0  0
   -7.2810   -2.0220  -18.3860 H   0  0  0  0  0  0  0  0  0  0  0  0
   -7.5320   -1.5510  -22.0050 C   0  0  0  0  0  0  0  0  0  0  0  0
   -7.8420   -0.3840  -22.1330 O   0  0  0  0  0  0  0  0  0  0  0  0
   -7.8930   -2.7180  -22.9450 C   0  0  1  0  0  0  0  0  0  0  0  0
   -7.0950   -2.5270  -24.2460 C   0  0  0  0  0  0  0  0  0  0  0  0
   -7.5410   -3.4030  -25.3200 N   0  0  0  0  0  0  0  0  0  0  0  0
   -6.5770   -3.8800  -26.2960 C   0  0  0  0  0  0  0  0  0  0  0  0
   -6.4360   -5.3520  -26.2970 C   0  0  0  0  0  0  0  0  0  0  0  0
   -6.2920   -6.5010  -26.2900 N   0  0  0  0  0  0  0  0  0  0  0  0
   -5.6070   -3.4380  -26.0550 H   0  0  0  0  0  0  0  0  0  0  0  0
   -6.8650   -3.5620  -27.3030 H   0  0  0  0  0  0  0  0  0  0  0  0
   -8.8680   -3.5770  -25.6170 C   0  0  0  0  0  0  0  0  0  0  0  0
   -9.2210   -4.0770  -26.6780 O   0  0  0  0  0  0  0  0  0  0  0  0
   -9.8220   -3.1520  -24.5340 C   0  0  0  0  0  0  0  0  0  0  0  0
  -11.1920   -3.2840  -24.7570 C   0  0  0  0  0  0  0  0  0  0  0  0
  -12.0800   -2.9830  -23.7370 C   0  0  0  0  0  0  0  0  0  0  0  0
  -11.6050   -2.5090  -22.5330 C   0  0  0  0  0  0  0  0  0  0  0  0
  -12.5140   -2.1710  -21.6100 F   0  0  0  0  0  0  0  0  0  0  0  0
  -10.2650   -2.3840  -22.2680 C   0  0  0  0  0  0  0  0  0  0  0  0
   -9.3610   -2.7140  -23.2830 C   0  0  0  0  0  0  0  0  0  0  0  0
   -9.9260   -2.0630  -21.2870 H   0  0  0  0  0  0  0  0  0  0  0  0
  -13.1530   -3.1020  -23.7440 H   0  0  0  0  0  0  0  0  0  0  0  0
  -11.5240   -3.6210  -25.7330 H   0  0  0  0  0  0  0  0  0  0  0  0
   -6.0380   -2.7500  -24.0520 H   0  0  0  0  0  0  0  0  0  0  0  0
   -7.2080   -1.4640  -24.5120 H   0  0  0  0  0  0  0  0  0  0  0  0
   -6.5550   -3.9180  -20.0730 H   0  0  0  0  0  0  0  0  0  0  0  0
   -5.4460   -3.6300  -21.4090 H   0  0  0  0  0  0  0  0  0  0  0  0
   -8.4290   -4.2410  -21.5680 H   0  0  0  0  0  0  0  0  0  0  0  0
   -7.7480   -5.5310  -23.6010 H   0  0  0  0  0  0  0  0  0  0  0  0
   -6.8130   -6.0430  -22.1800 H   0  0  0  0  0  0  0  0  0  0  0  0
   -6.0780   -4.9890  -23.4020 H   0  0  0  0  0  0  0  0  0  0  0  0
  1  2  1  0  0  0  0
  1 48  1  0  0  0  0
  1 49  1  0  0  0  0
  1 50  1  0  0  0  0
  2  3  1  0  0  0  0
  2 23  1  0  0  0  0
  2 47  1  1  0  0  0
  3  4  1  0  0  0  0
  3 45  1  0  0  0  0
  3 46  1  0  0  0  0
  4  5  1  0  0  0  0
  4 21  1  0  0  0  0
  5  6  2  0  0  0  0
  5 14  1  0  0  0  0
  6  7  1  0  0  0  0
  6 20  1  0  0  0  0
  7  8  2  0  0  0  0
  8  9  1  0  0  0  0
  8 19  1  0  0  0  0
  9 10  2  0  0  0  0
  9 14  1  0  0  0  0
 10 11  1  0  0  0  0
 10 18  1  0  0  0  0
 11 12  2  0  0  0  0
 11 17  1  0  0  0  0
 12 13  1  0  0  0  0
 12 16  1  0  0  0  0
 13 14  2  0  0  0  0
 13 15  1  0  0  0  0
 21 22  2  0  0  0  0
 23 21  1  1  0  0  0
 23 24  1  0  0  0  0
 23 39  1  0  0  0  0
 24 25  1  0  0  0  0
 24 43  1  0  0  0  0
 24 44  1  0  0  0  0
 25 26  1  0  0  0  0
 25 31  1  0  0  0  0
 26 27  1  0  0  0  0
 26 29  1  0  0  0  0
 26 30  1  0  0  0  0
 27 28  3  0  0  0  0
 31 32  2  0  0  0  0
 31 33  1  0  0  0  0
 33 34  2  0  0  0  0
 33 39  1  0  0  0  0
 34 35  1  0  0  0  0
 34 42  1  0  0  0  0
 35 36  2  0  0  0  0
 35 41  1  0  0  0  0
 36 37  1  0  0  0  0
 36 38  1  0  0  0  0
 38 39  2  0  0  0  0
 38 40  1  0  0  0  0
M  END
>  <MODEL>
       1

$$$$
best_conformers_71.pdb
 OpenBabel01292518153D

 50 54  0  0  1  0  0  0  0  0999 V2000
   -7.0220   -5.2070  -22.8520 C   0  0  0  0  0  0  0  0  0  0  0  0
   -7.5140   -3.9760  -22.0840 C   0  0  1  0  0  0  0  0  0  0  0  0
   -6.4870   -3.4560  -21.0600 C   0  0  0  0  0  0  0  0  0  0  0  0
   -6.7800   -2.0380  -20.9640 N   0  0  0  0  0  0  0  0  0  0  0  0
   -6.1740   -1.1870  -20.0090 C   0  0  0  0  0  0  0  0  0  0  0  0
   -6.5320   -1.2920  -18.6890 C   0  0  0  0  0  0  0  0  0  0  0  0
   -6.0220   -0.5330  -17.6900 N   0  0  0  0  0  0  0  0  0  0  0  0
   -5.1070    0.3510  -18.0180 C   0  0  0  0  0  0  0  0  0  0  0  0
   -4.6150    0.5400  -19.3410 C   0  0  0  0  0  0  0  0  0  0  0  0
   -3.6110    1.5020  -19.6370 C   0  0  0  0  0  0  0  0  0  0  0  0
   -3.1410    1.6470  -20.9130 C   0  0  0  0  0  0  0  0  0  0  0  0
   -3.6450    0.8300  -21.9500 C   0  0  0  0  0  0  0  0  0  0  0  0
   -4.6160   -0.1030  -21.6890 C   0  0  0  0  0  0  0  0  0  0  0  0
   -5.1490   -0.2570  -20.3770 C   0  0  0  0  0  0  0  0  0  0  0  0
   -5.0000   -0.7170  -22.4970 H   0  0  0  0  0  0  0  0  0  0  0  0
   -3.2770    0.9570  -22.9640 H   0  0  0  0  0  0  0  0  0  0  0  0
   -2.3850    2.3960  -21.1380 H   0  0  0  0  0  0  0  0  0  0  0  0
   -3.2380    2.1220  -18.8270 H   0  0  0  0  0  0  0  0  0  0  0  0
   -4.7120    0.9650  -17.2110 H   0  0  0  0  0  0  0  0  0  0  0  0
   -7.2810   -2.0220  -18.3850 H   0  0  0  0  0  0  0  0  0  0  0  0
   -7.5370   -1.5470  -22.0020 C   0  0  0  0  0  0  0  0  0  0  0  0
   -7.8420   -0.3770  -22.1300 O   0  0  0  0  0  0  0  0  0  0  0  0
   -7.9090   -2.7130  -22.9350 C   0  0  1  0  0  0  0  0  0  0  0  0
   -7.1310   -2.5390  -24.2500 C   0  0  0  0  0  0  0  0  0  0  0  0
   -7.5790   -3.4630  -25.2770 N   0  0  0  0  0  0  0  0  0  0  0  0
   -6.6140   -4.0330  -26.1920 C   0  0  0  0  0  0  0  0  0  0  0  0
   -6.5090   -3.3170  -27.4800 C   0  0  0  0  0  0  0  0  0  0  0  0
   -6.3750   -2.8100  -28.5110 N   0  0  0  0  0  0  0  0  0  0  0  0
   -6.8670   -5.0760  -26.4100 H   0  0  0  0  0  0  0  0  0  0  0  0
   -5.6290   -4.0050  -25.7130 H   0  0  0  0  0  0  0  0  0  0  0  0
   -8.9070   -3.6280  -25.5710 C   0  0  0  0  0  0  0  0  0  0  0  0
   -9.2640   -4.1690  -26.6110 O   0  0  0  0  0  0  0  0  0  0  0  0
   -9.8540   -3.1480  -24.5090 C   0  0  0  0  0  0  0  0  0  0  0  0
  -11.2250   -3.2560  -24.7380 C   0  0  0  0  0  0  0  0  0  0  0  0
  -12.1080   -2.9360  -23.7220 C   0  0  0  0  0  0  0  0  0  0  0  0
  -11.6280   -2.4770  -22.5150 C   0  0  0  0  0  0  0  0  0  0  0  0
  -12.5370   -2.1420  -21.5940 F   0  0  0  0  0  0  0  0  0  0  0  0
  -10.2850   -2.3650  -22.2470 C   0  0  0  0  0  0  0  0  0  0  0  0
   -9.3850   -2.7030  -23.2630 C   0  0  0  0  0  0  0  0  0  0  0  0
   -9.9410   -2.0460  -21.2670 H   0  0  0  0  0  0  0  0  0  0  0  0
  -13.1830   -3.0280  -23.7260 H   0  0  0  0  0  0  0  0  0  0  0  0
  -11.5610   -3.6010  -25.7080 H   0  0  0  0  0  0  0  0  0  0  0  0
   -7.2770   -1.4940  -24.5630 H   0  0  0  0  0  0  0  0  0  0  0  0
   -6.0640   -2.7180  -24.0670 H   0  0  0  0  0  0  0  0  0  0  0  0
   -5.4560   -3.6340  -21.4090 H   0  0  0  0  0  0  0  0  0  0  0  0
   -6.5620   -3.9150  -20.0700 H   0  0  0  0  0  0  0  0  0  0  0  0
   -8.4440   -4.2400  -21.5600 H   0  0  0  0  0  0  0  0  0  0  0  0
   -6.8270   -6.0430  -22.1690 H   0  0  0  0  0  0  0  0  0  0  0  0
   -7.7590   -5.5330  -23.5930 H   0  0  0  0  0  0  0  0  0  0  0  0
   -6.0880   -4.9880  -23.3840 H   0  0  0  0  0  0  0  0  0  0  0  0
  1  2  1  0  0  0  0
  1 48  1  0  0  0  0
  1 49  1  0  0  0  0
  1 50  1  0  0  0  0
  2  3  1  0  0  0  0
  2 23  1  0  0  0  0
  2 47  1  1  0  0  0
  3  4  1  0  0  0  0
  3 45  1  0  0  0  0
  3 46  1  0  0  0  0
  4  5  1  0  0  0  0
  4 21  1  0  0  0  0
  5  6  2  0  0  0  0
  5 14  1  0  0  0  0
  6  7  1  0  0  0  0
  6 20  1  0  0  0  0
  7  8  2  0  0  0  0
  8  9  1  0  0  0  0
  8 19  1  0  0  0  0
  9 10  2  0  0  0  0
  9 14  1  0  0  0  0
 10 11  1  0  0  0  0
 10 18  1  0  0  0  0
 11 12  2  0  0  0  0
 11 17  1  0  0  0  0
 12 13  1  0  0  0  0
 12 16  1  0  0  0  0
 13 14  2  0  0  0  0
 13 15  1  0  0  0  0
 21 22  2  0  0  0  0
 23 21  1  1  0  0  0
 23 24  1  0  0  0  0
 23 39  1  0  0  0  0
 24 25  1  0  0  0  0
 24 43  1  0  0  0  0
 24 44  1  0  0  0  0
 25 26  1  0  0  0  0
 25 31  1  0  0  0  0
 26 27  1  0  0  0  0
 26 29  1  0  0  0  0
 26 30  1  0  0  0  0
 27 28  3  0  0  0  0
 31 32  2  0  0  0  0
 31 33  1  0  0  0  0
 33 34  2  0  0  0  0
 33 39  1  0  0  0  0
 34 35  1  0  0  0  0
 34 42  1  0  0  0  0
 35 36  2  0  0  0  0
 35 41  1  0  0  0  0
 36 37  1  0  0  0  0
 36 38  1  0  0  0  0
 38 39  2  0  0  0  0
 38 40  1  0  0  0  0
M  END
>  <MODEL>
       2

$$$$
