best_conformers_82.pdb
 OpenBabel01292518153D

 54 57  0  0  1  0  0  0  0  0999 V2000
   -9.8690   -1.6450  -25.4580 C   0  0  0  0  0  0  0  0  0  0  0  0
   -8.8930   -2.2050  -24.6420 O   0  0  0  0  0  0  0  0  0  0  0  0
   -7.6110   -1.9720  -25.0250 C   0  0  0  0  0  0  0  0  0  0  0  0
   -7.2250   -1.0180  -25.9720 C   0  0  0  0  0  0  0  0  0  0  0  0
   -5.8690   -0.7860  -26.1860 C   0  0  0  0  0  0  0  0  0  0  0  0
   -4.9270   -1.5210  -25.4820 C   0  0  0  0  0  0  0  0  0  0  0  0
   -5.3420   -2.5020  -24.5810 C   0  0  0  0  0  0  0  0  0  0  0  0
   -6.6770   -2.7710  -24.3540 C   0  0  0  0  0  0  0  0  0  0  0  0
   -7.2100   -3.8440  -23.4010 C   0  0  1  0  0  0  0  0  0  0  0  0
   -7.8210   -5.0640  -24.1320 C   0  0  0  0  0  0  0  0  0  0  0  0
   -6.8510   -6.2010  -24.4760 C   0  0  1  0  0  0  0  0  0  0  0  0
   -5.9180   -5.9000  -25.6550 C   0  0  0  0  0  0  0  0  0  0  0  0
   -5.3060   -6.7780  -25.9000 H   0  0  0  0  0  0  0  0  0  0  0  0
   -6.4960   -5.6350  -26.5490 H   0  0  0  0  0  0  0  0  0  0  0  0
   -5.2410   -5.0660  -25.4450 H   0  0  0  0  0  0  0  0  0  0  0  0
   -6.1100   -6.5800  -23.1910 C   0  0  0  0  0  0  0  0  0  0  0  0
   -5.3770   -5.3920  -22.5830 C   0  0  0  0  0  0  0  0  0  0  0  0
   -6.2520   -4.2370  -22.3710 N   0  0  0  0  0  0  0  0  0  0  0  0
   -5.8400   -3.3690  -21.3790 C   0  0  0  0  0  0  0  0  0  0  0  0
   -4.8190   -3.5770  -20.7450 O   0  0  0  0  0  0  0  0  0  0  0  0
   -6.7400   -2.1540  -21.0390 C   0  0  0  0  0  0  0  0  0  0  0  0
   -6.1300   -1.2320  -20.0130 C   0  0  0  0  0  0  0  0  0  0  0  0
   -6.5070   -1.2960  -18.6940 C   0  0  0  0  0  0  0  0  0  0  0  0
   -6.0200   -0.5220  -17.6850 N   0  0  0  0  0  0  0  0  0  0  0  0
   -5.1020    0.3580  -18.0050 C   0  0  0  0  0  0  0  0  0  0  0  0
   -4.6030    0.5400  -19.3250 C   0  0  0  0  0  0  0  0  0  0  0  0
   -3.6110    1.5070  -19.6250 C   0  0  0  0  0  0  0  0  0  0  0  0
   -3.1560    1.6560  -20.9080 C   0  0  0  0  0  0  0  0  0  0  0  0
   -3.6740    0.8490  -21.9440 C   0  0  0  0  0  0  0  0  0  0  0  0
   -4.6380   -0.0950  -21.6800 C   0  0  0  0  0  0  0  0  0  0  0  0
   -5.1280   -0.2750  -20.3580 C   0  0  0  0  0  0  0  0  0  0  0  0
   -5.0330   -0.7050  -22.4890 H   0  0  0  0  0  0  0  0  0  0  0  0
   -3.3140    0.9840  -22.9600 H   0  0  0  0  0  0  0  0  0  0  0  0
   -2.4000    2.4020  -21.1370 H   0  0  0  0  0  0  0  0  0  0  0  0
   -3.2300    2.1280  -18.8190 H   0  0  0  0  0  0  0  0  0  0  0  0
   -4.7040    0.9800  -17.2000 H   0  0  0  0  0  0  0  0  0  0  0  0
   -7.2660   -2.0090  -18.3750 H   0  0  0  0  0  0  0  0  0  0  0  0
   -7.6830   -2.5580  -20.6460 H   0  0  0  0  0  0  0  0  0  0  0  0
   -7.0090   -1.6100  -21.9550 H   0  0  0  0  0  0  0  0  0  0  0  0
   -4.9820   -5.6450  -21.5990 H   0  0  0  0  0  0  0  0  0  0  0  0
   -4.5090   -5.1290  -23.2070 H   0  0  0  0  0  0  0  0  0  0  0  0
   -6.8350   -6.9620  -22.4610 H   0  0  0  0  0  0  0  0  0  0  0  0
   -5.3830   -7.3790  -23.3910 H   0  0  0  0  0  0  0  0  0  0  0  0
   -7.4680   -7.0630  -24.7690 H   0  0  0  0  0  0  0  0  0  0  0  0
   -8.3140   -4.7050  -25.0420 H   0  0  0  0  0  0  0  0  0  0  0  0
   -8.6030   -5.4730  -23.4800 H   0  0  0  0  0  0  0  0  0  0  0  0
   -8.0570   -3.3810  -22.8850 H   0  0  0  0  0  0  0  0  0  0  0  0
   -4.6090   -3.0920  -24.0440 H   0  0  0  0  0  0  0  0  0  0  0  0
   -3.8650   -1.3530  -25.6250 H   0  0  0  0  0  0  0  0  0  0  0  0
   -5.5530   -0.0150  -26.8890 H   0  0  0  0  0  0  0  0  0  0  0  0
   -7.9590   -0.4450  -26.5290 H   0  0  0  0  0  0  0  0  0  0  0  0
   -9.6600   -1.9340  -26.4980 H   0  0  0  0  0  0  0  0  0  0  0  0
   -9.8370   -0.5500  -25.3650 H   0  0  0  0  0  0  0  0  0  0  0  0
  -10.8340   -2.0440  -25.1310 H   0  0  0  0  0  0  0  0  0  0  0  0
  1  2  1  0  0  0  0
  1 52  1  0  0  0  0
  1 53  1  0  0  0  0
  1 54  1  0  0  0  0
  2  3  1  0  0  0  0
  3  4  2  0  0  0  0
  3  8  1  0  0  0  0
  4  5  1  0  0  0  0
  4 51  1  0  0  0  0
  5  6  2  0  0  0  0
  5 50  1  0  0  0  0
  6  7  1  0  0  0  0
  6 49  1  0  0  0  0
  7  8  2  0  0  0  0
  7 48  1  0  0  0  0
  8  9  1  0  0  0  0
  9 10  1  0  0  0  0
  9 18  1  0  0  0  0
  9 47  1  1  0  0  0
 10 11  1  0  0  0  0
 10 45  1  0  0  0  0
 10 46  1  0  0  0  0
 11 12  1  0  0  0  0
 11 16  1  0  0  0  0
 11 44  1  6  0  0  0
 12 13  1  0  0  0  0
 12 14  1  0  0  0  0
 12 15  1  0  0  0  0
 16 17  1  0  0  0  0
 16 42  1  0  0  0  0
 16 43  1  0  0  0  0
 17 18  1  0  0  0  0
 17 40  1  0  0  0  0
 17 41  1  0  0  0  0
 18 19  1  0  0  0  0
 19 20  2  0  0  0  0
 19 21  1  0  0  0  0
 21 22  1  0  0  0  0
 21 38  1  0  0  0  0
 21 39  1  0  0  0  0
 22 23  2  0  0  0  0
 22 31  1  0  0  0  0
 23 24  1  0  0  0  0
 23 37  1  0  0  0  0
 24 25  2  0  0  0  0
 25 26  1  0  0  0  0
 25 36  1  0  0  0  0
 26 27  2  0  0  0  0
 26 31  1  0  0  0  0
 27 28  1  0  0  0  0
 27 35  1  0  0  0  0
 28 29  2  0  0  0  0
 28 34  1  0  0  0  0
 29 30  1  0  0  0  0
 29 33  1  0  0  0  0
 30 31  2  0  0  0  0
 30 32  1  0  0  0  0
M  END
>  <MODEL>
       1

$$$$
