best_conformers_40.pdb
 OpenBabel01292518153D

 40 42  0  0  0  0  0  0  0  0999 V2000
   -7.6460   -7.9220  -23.8270 C   0  0  0  0  0  0  0  0  0  0  0  0
   -7.4900   -6.7960  -22.8530 C   0  0  0  0  0  0  0  0  0  0  0  0
   -7.9010   -5.4560  -23.4430 C   0  0  0  0  0  0  0  0  0  0  0  0
   -7.8370   -4.4280  -22.3220 C   0  0  0  0  0  0  0  0  0  0  0  0
   -6.5250   -4.4680  -21.6640 N   0  0  0  0  0  0  0  0  0  0  0  0
   -5.8880   -3.3740  -21.1640 C   0  0  0  0  0  0  0  0  0  0  0  0
   -4.7240   -3.4110  -20.7950 O   0  0  0  0  0  0  0  0  0  0  0  0
   -6.7470   -2.1280  -21.0040 C   0  0  0  0  0  0  0  0  0  0  0  0
   -6.1530   -1.2010  -19.9990 C   0  0  0  0  0  0  0  0  0  0  0  0
   -6.5330   -1.2910  -18.6840 C   0  0  0  0  0  0  0  0  0  0  0  0
   -6.0400   -0.5320  -17.6690 N   0  0  0  0  0  0  0  0  0  0  0  0
   -5.1190    0.3430  -17.9940 C   0  0  0  0  0  0  0  0  0  0  0  0
   -4.6110    0.5280  -19.3100 C   0  0  0  0  0  0  0  0  0  0  0  0
   -3.6230    1.4960  -19.6140 C   0  0  0  0  0  0  0  0  0  0  0  0
   -3.1640    1.6460  -20.8930 C   0  0  0  0  0  0  0  0  0  0  0  0
   -3.6680    0.8300  -21.9330 C   0  0  0  0  0  0  0  0  0  0  0  0
   -4.6230   -0.1170  -21.6660 C   0  0  0  0  0  0  0  0  0  0  0  0
   -5.1310   -0.2790  -20.3490 C   0  0  0  0  0  0  0  0  0  0  0  0
   -4.9960   -0.7500  -22.4680 H   0  0  0  0  0  0  0  0  0  0  0  0
   -3.3070    0.9700  -22.9500 H   0  0  0  0  0  0  0  0  0  0  0  0
   -2.4130    2.3980  -21.1250 H   0  0  0  0  0  0  0  0  0  0  0  0
   -3.2510    2.1270  -18.8080 H   0  0  0  0  0  0  0  0  0  0  0  0
   -4.7150    0.9710  -17.1970 H   0  0  0  0  0  0  0  0  0  0  0  0
   -7.2880   -2.0210  -18.3920 H   0  0  0  0  0  0  0  0  0  0  0  0
   -7.7250   -2.4760  -20.6460 H   0  0  0  0  0  0  0  0  0  0  0  0
   -6.8940   -1.6610  -21.9880 H   0  0  0  0  0  0  0  0  0  0  0  0
   -5.9450   -5.7430  -21.2570 C   0  0  0  0  0  0  0  0  0  0  0  0
   -6.0440   -6.7410  -22.3770 C   0  0  0  0  0  0  0  0  0  0  0  0
   -5.4010   -6.4600  -23.2210 H   0  0  0  0  0  0  0  0  0  0  0  0
   -5.7080   -7.7280  -22.0400 H   0  0  0  0  0  0  0  0  0  0  0  0
   -6.4570   -6.1390  -20.3620 H   0  0  0  0  0  0  0  0  0  0  0  0
   -4.9090   -5.5240  -20.9940 H   0  0  0  0  0  0  0  0  0  0  0  0
   -8.6580   -4.6590  -21.6250 H   0  0  0  0  0  0  0  0  0  0  0  0
   -8.0200   -3.4200  -22.7080 H   0  0  0  0  0  0  0  0  0  0  0  0
   -8.9240   -5.4950  -23.8480 H   0  0  0  0  0  0  0  0  0  0  0  0
   -7.2430   -5.1830  -24.2800 H   0  0  0  0  0  0  0  0  0  0  0  0
   -8.1260   -6.9630  -21.9740 H   0  0  0  0  0  0  0  0  0  0  0  0
   -8.6230   -7.9660  -24.3060 H   0  0  0  0  0  0  0  0  0  0  0  0
   -7.4760   -8.8570  -23.2910 H   0  0  0  0  0  0  0  0  0  0  0  0
   -6.9050   -7.7760  -24.6170 H   0  0  0  0  0  0  0  0  0  0  0  0
  1  2  1  0  0  0  0
  1 38  1  0  0  0  0
  1 39  1  0  0  0  0
  1 40  1  0  0  0  0
  2  3  1  0  0  0  0
  2 28  1  0  0  0  0
  2 37  1  0  0  0  0
  3  4  1  0  0  0  0
  3 35  1  0  0  0  0
  3 36  1  0  0  0  0
  4  5  1  0  0  0  0
  4 33  1  0  0  0  0
  4 34  1  0  0  0  0
  5  6  1  0  0  0  0
  5 27  1  0  0  0  0
  6  7  2  0  0  0  0
  6  8  1  0  0  0  0
  8  9  1  0  0  0  0
  8 25  1  0  0  0  0
  8 26  1  0  0  0  0
  9 10  2  0  0  0  0
  9 18  1  0  0  0  0
 10 11  1  0  0  0  0
 10 24  1  0  0  0  0
 11 12  2  0  0  0  0
 12 13  1  0  0  0  0
 12 23  1  0  0  0  0
 13 14  2  0  0  0  0
 13 18  1  0  0  0  0
 14 15  1  0  0  0  0
 14 22  1  0  0  0  0
 15 16  2  0  0  0  0
 15 21  1  0  0  0  0
 16 17  1  0  0  0  0
 16 20  1  0  0  0  0
 17 18  2  0  0  0  0
 17 19  1  0  0  0  0
 27 28  1  0  0  0  0
 27 31  1  0  0  0  0
 27 32  1  0  0  0  0
 28 29  1  0  0  0  0
 28 30  1  0  0  0  0
M  END
>  <MODEL>
       1

$$$$
best_conformers_40.pdb
 OpenBabel01292518153D

 40 42  0  0  0  0  0  0  0  0999 V2000
   -7.6430   -7.9210  -23.8260 C   0  0  0  0  0  0  0  0  0  0  0  0
   -7.4880   -6.7950  -22.8550 C   0  0  0  0  0  0  0  0  0  0  0  0
   -6.0430   -6.7430  -22.3780 C   0  0  0  0  0  0  0  0  0  0  0  0
   -5.9450   -5.7440  -21.2580 C   0  0  0  0  0  0  0  0  0  0  0  0
   -6.5270   -4.4710  -21.6640 N   0  0  0  0  0  0  0  0  0  0  0  0
   -5.8890   -3.3740  -21.1650 C   0  0  0  0  0  0  0  0  0  0  0  0
   -4.7210   -3.4120  -20.7960 O   0  0  0  0  0  0  0  0  0  0  0  0
   -6.7460   -2.1290  -21.0050 C   0  0  0  0  0  0  0  0  0  0  0  0
   -6.1530   -1.2010  -19.9980 C   0  0  0  0  0  0  0  0  0  0  0  0
   -6.5320   -1.2920  -18.6840 C   0  0  0  0  0  0  0  0  0  0  0  0
   -6.0410   -0.5330  -17.6690 N   0  0  0  0  0  0  0  0  0  0  0  0
   -5.1180    0.3440  -17.9940 C   0  0  0  0  0  0  0  0  0  0  0  0
   -4.6110    0.5270  -19.3110 C   0  0  0  0  0  0  0  0  0  0  0  0
   -3.6220    1.4970  -19.6130 C   0  0  0  0  0  0  0  0  0  0  0  0
   -3.1630    1.6470  -20.8950 C   0  0  0  0  0  0  0  0  0  0  0  0
   -3.6680    0.8300  -21.9340 C   0  0  0  0  0  0  0  0  0  0  0  0
   -4.6230   -0.1180  -21.6670 C   0  0  0  0  0  0  0  0  0  0  0  0
   -5.1310   -0.2790  -20.3490 C   0  0  0  0  0  0  0  0  0  0  0  0
   -4.9970   -0.7500  -22.4680 H   0  0  0  0  0  0  0  0  0  0  0  0
   -3.3070    0.9710  -22.9500 H   0  0  0  0  0  0  0  0  0  0  0  0
   -2.4130    2.3980  -21.1250 H   0  0  0  0  0  0  0  0  0  0  0  0
   -3.2510    2.1260  -18.8080 H   0  0  0  0  0  0  0  0  0  0  0  0
   -4.7150    0.9710  -17.1980 H   0  0  0  0  0  0  0  0  0  0  0  0
   -7.2880   -2.0210  -18.3920 H   0  0  0  0  0  0  0  0  0  0  0  0
   -7.7220   -2.4780  -20.6470 H   0  0  0  0  0  0  0  0  0  0  0  0
   -6.8950   -1.6630  -21.9890 H   0  0  0  0  0  0  0  0  0  0  0  0
   -7.8360   -4.4300  -22.3220 C   0  0  0  0  0  0  0  0  0  0  0  0
   -7.9010   -5.4560  -23.4440 C   0  0  0  0  0  0  0  0  0  0  0  0
   -8.9250   -5.4970  -23.8490 H   0  0  0  0  0  0  0  0  0  0  0  0
   -7.2420   -5.1840  -24.2820 H   0  0  0  0  0  0  0  0  0  0  0  0
   -8.0200   -3.4220  -22.7060 H   0  0  0  0  0  0  0  0  0  0  0  0
   -8.6580   -4.6620  -21.6270 H   0  0  0  0  0  0  0  0  0  0  0  0
   -6.4570   -6.1390  -20.3640 H   0  0  0  0  0  0  0  0  0  0  0  0
   -4.9120   -5.5210  -20.9950 H   0  0  0  0  0  0  0  0  0  0  0  0
   -5.4010   -6.4600  -23.2230 H   0  0  0  0  0  0  0  0  0  0  0  0
   -5.7070   -7.7300  -22.0390 H   0  0  0  0  0  0  0  0  0  0  0  0
   -8.1240   -6.9630  -21.9750 H   0  0  0  0  0  0  0  0  0  0  0  0
   -8.6180   -7.9660  -24.3070 H   0  0  0  0  0  0  0  0  0  0  0  0
   -6.9050   -7.7730  -24.6190 H   0  0  0  0  0  0  0  0  0  0  0  0
   -7.4760   -8.8560  -23.2870 H   0  0  0  0  0  0  0  0  0  0  0  0
  1  2  1  0  0  0  0
  1 38  1  0  0  0  0
  1 39  1  0  0  0  0
  1 40  1  0  0  0  0
  2  3  1  0  0  0  0
  2 28  1  0  0  0  0
  2 37  1  0  0  0  0
  3  4  1  0  0  0  0
  3 35  1  0  0  0  0
  3 36  1  0  0  0  0
  4  5  1  0  0  0  0
  4 33  1  0  0  0  0
  4 34  1  0  0  0  0
  5  6  1  0  0  0  0
  5 27  1  0  0  0  0
  6  7  2  0  0  0  0
  6  8  1  0  0  0  0
  8  9  1  0  0  0  0
  8 25  1  0  0  0  0
  8 26  1  0  0  0  0
  9 10  2  0  0  0  0
  9 18  1  0  0  0  0
 10 11  1  0  0  0  0
 10 24  1  0  0  0  0
 11 12  2  0  0  0  0
 12 13  1  0  0  0  0
 12 23  1  0  0  0  0
 13 14  2  0  0  0  0
 13 18  1  0  0  0  0
 14 15  1  0  0  0  0
 14 22  1  0  0  0  0
 15 16  2  0  0  0  0
 15 21  1  0  0  0  0
 16 17  1  0  0  0  0
 16 20  1  0  0  0  0
 17 18  2  0  0  0  0
 17 19  1  0  0  0  0
 27 28  1  0  0  0  0
 27 31  1  0  0  0  0
 27 32  1  0  0  0  0
 28 29  1  0  0  0  0
 28 30  1  0  0  0  0
M  END
>  <MODEL>
       2

$$$$
best_conformers_40.pdb
 OpenBabel01292518153D

 40 42  0  0  0  0  0  0  0  0999 V2000
   -8.2380   -5.9520  -25.2110 C   0  0  0  0  0  0  0  0  0  0  0  0
   -6.7700   -5.6060  -24.9610 C   0  0  0  0  0  0  0  0  0  0  0  0
   -6.5050   -4.0980  -25.0590 C   0  0  0  0  0  0  0  0  0  0  0  0
   -6.7330   -3.3400  -23.7530 C   0  0  0  0  0  0  0  0  0  0  0  0
   -5.9790   -3.9190  -22.6440 N   0  0  0  0  0  0  0  0  0  0  0  0
   -5.7940   -3.2930  -21.4360 C   0  0  0  0  0  0  0  0  0  0  0  0
   -4.9340   -3.6630  -20.6500 O   0  0  0  0  0  0  0  0  0  0  0  0
   -6.7430   -2.1320  -21.0380 C   0  0  0  0  0  0  0  0  0  0  0  0
   -6.1370   -1.2120  -20.0030 C   0  0  0  0  0  0  0  0  0  0  0  0
   -6.5050   -1.2810  -18.6840 C   0  0  0  0  0  0  0  0  0  0  0  0
   -6.0140   -0.5120  -17.6720 N   0  0  0  0  0  0  0  0  0  0  0  0
   -5.0970    0.3690  -17.9980 C   0  0  0  0  0  0  0  0  0  0  0  0
   -4.6050    0.5530  -19.3210 C   0  0  0  0  0  0  0  0  0  0  0  0
   -3.6070    1.5150  -19.6270 C   0  0  0  0  0  0  0  0  0  0  0  0
   -3.1510    1.6670  -20.9090 C   0  0  0  0  0  0  0  0  0  0  0  0
   -3.6770    0.8590  -21.9430 C   0  0  0  0  0  0  0  0  0  0  0  0
   -4.6430   -0.0770  -21.6740 C   0  0  0  0  0  0  0  0  0  0  0  0
   -5.1370   -0.2580  -20.3550 C   0  0  0  0  0  0  0  0  0  0  0  0
   -5.0340   -0.6880  -22.4830 H   0  0  0  0  0  0  0  0  0  0  0  0
   -3.3150    0.9880  -22.9590 H   0  0  0  0  0  0  0  0  0  0  0  0
   -2.3910    2.4080  -21.1450 H   0  0  0  0  0  0  0  0  0  0  0  0
   -3.2110    2.1360  -18.8250 H   0  0  0  0  0  0  0  0  0  0  0  0
   -4.6880    0.9910  -17.1980 H   0  0  0  0  0  0  0  0  0  0  0  0
   -7.2610   -1.9980  -18.3680 H   0  0  0  0  0  0  0  0  0  0  0  0
   -7.0930   -1.5490  -21.9000 H   0  0  0  0  0  0  0  0  0  0  0  0
   -7.6430   -2.5890  -20.6000 H   0  0  0  0  0  0  0  0  0  0  0  0
   -5.3430   -5.2180  -22.8750 C   0  0  0  0  0  0  0  0  0  0  0  0
   -6.2940   -6.1570  -23.6060 C   0  0  0  0  0  0  0  0  0  0  0  0
   -7.1490   -6.3470  -22.9520 H   0  0  0  0  0  0  0  0  0  0  0  0
   -5.8160   -7.1300  -23.7500 H   0  0  0  0  0  0  0  0  0  0  0  0
   -5.0560   -5.6330  -21.9110 H   0  0  0  0  0  0  0  0  0  0  0  0
   -4.4170   -5.1070  -23.4500 H   0  0  0  0  0  0  0  0  0  0  0  0
   -7.8030   -3.3150  -23.5180 H   0  0  0  0  0  0  0  0  0  0  0  0
   -6.4260   -2.2990  -23.9120 H   0  0  0  0  0  0  0  0  0  0  0  0
   -7.1460   -3.6700  -25.8350 H   0  0  0  0  0  0  0  0  0  0  0  0
   -5.4840   -3.9160  -25.4110 H   0  0  0  0  0  0  0  0  0  0  0  0
   -6.1860   -6.0860  -25.7540 H   0  0  0  0  0  0  0  0  0  0  0  0
   -8.5610   -5.6340  -26.2070 H   0  0  0  0  0  0  0  0  0  0  0  0
   -8.4110   -7.0310  -25.1350 H   0  0  0  0  0  0  0  0  0  0  0  0
   -8.8910   -5.4610  -24.4820 H   0  0  0  0  0  0  0  0  0  0  0  0
  1  2  1  0  0  0  0
  1 38  1  0  0  0  0
  1 39  1  0  0  0  0
  1 40  1  0  0  0  0
  2  3  1  0  0  0  0
  2 28  1  0  0  0  0
  2 37  1  0  0  0  0
  3  4  1  0  0  0  0
  3 35  1  0  0  0  0
  3 36  1  0  0  0  0
  4  5  1  0  0  0  0
  4 33  1  0  0  0  0
  4 34  1  0  0  0  0
  5  6  1  0  0  0  0
  5 27  1  0  0  0  0
  6  7  2  0  0  0  0
  6  8  1  0  0  0  0
  8  9  1  0  0  0  0
  8 25  1  0  0  0  0
  8 26  1  0  0  0  0
  9 10  2  0  0  0  0
  9 18  1  0  0  0  0
 10 11  1  0  0  0  0
 10 24  1  0  0  0  0
 11 12  2  0  0  0  0
 12 13  1  0  0  0  0
 12 23  1  0  0  0  0
 13 14  2  0  0  0  0
 13 18  1  0  0  0  0
 14 15  1  0  0  0  0
 14 22  1  0  0  0  0
 15 16  2  0  0  0  0
 15 21  1  0  0  0  0
 16 17  1  0  0  0  0
 16 20  1  0  0  0  0
 17 18  2  0  0  0  0
 17 19  1  0  0  0  0
 27 28  1  0  0  0  0
 27 31  1  0  0  0  0
 27 32  1  0  0  0  0
 28 29  1  0  0  0  0
 28 30  1  0  0  0  0
M  END
>  <MODEL>
       3

$$$$
best_conformers_40.pdb
 OpenBabel01292518153D

 40 42  0  0  0  0  0  0  0  0999 V2000
   -8.2410   -5.9490  -25.2120 C   0  0  0  0  0  0  0  0  0  0  0  0
   -6.7730   -5.6030  -24.9630 C   0  0  0  0  0  0  0  0  0  0  0  0
   -6.2960   -6.1550  -23.6080 C   0  0  0  0  0  0  0  0  0  0  0  0
   -5.3450   -5.2170  -22.8770 C   0  0  0  0  0  0  0  0  0  0  0  0
   -5.9800   -3.9180  -22.6450 N   0  0  0  0  0  0  0  0  0  0  0  0
   -5.7950   -3.2930  -21.4370 C   0  0  0  0  0  0  0  0  0  0  0  0
   -4.9340   -3.6630  -20.6510 O   0  0  0  0  0  0  0  0  0  0  0  0
   -6.7430   -2.1320  -21.0380 C   0  0  0  0  0  0  0  0  0  0  0  0
   -6.1370   -1.2120  -20.0030 C   0  0  0  0  0  0  0  0  0  0  0  0
   -6.5050   -1.2810  -18.6840 C   0  0  0  0  0  0  0  0  0  0  0  0
   -6.0140   -0.5120  -17.6720 N   0  0  0  0  0  0  0  0  0  0  0  0
   -5.0970    0.3690  -17.9980 C   0  0  0  0  0  0  0  0  0  0  0  0
   -4.6050    0.5530  -19.3210 C   0  0  0  0  0  0  0  0  0  0  0  0
   -3.6070    1.5150  -19.6270 C   0  0  0  0  0  0  0  0  0  0  0  0
   -3.1520    1.6680  -20.9090 C   0  0  0  0  0  0  0  0  0  0  0  0
   -3.6780    0.8590  -21.9430 C   0  0  0  0  0  0  0  0  0  0  0  0
   -4.6430   -0.0770  -21.6740 C   0  0  0  0  0  0  0  0  0  0  0  0
   -5.1370   -0.2580  -20.3550 C   0  0  0  0  0  0  0  0  0  0  0  0
   -5.0340   -0.6880  -22.4830 H   0  0  0  0  0  0  0  0  0  0  0  0
   -3.3150    0.9880  -22.9590 H   0  0  0  0  0  0  0  0  0  0  0  0
   -2.3910    2.4090  -21.1450 H   0  0  0  0  0  0  0  0  0  0  0  0
   -3.2110    2.1360  -18.8250 H   0  0  0  0  0  0  0  0  0  0  0  0
   -4.6880    0.9910  -17.1980 H   0  0  0  0  0  0  0  0  0  0  0  0
   -7.2610   -1.9980  -18.3680 H   0  0  0  0  0  0  0  0  0  0  0  0
   -7.6430   -2.5880  -20.6000 H   0  0  0  0  0  0  0  0  0  0  0  0
   -7.0930   -1.5480  -21.9000 H   0  0  0  0  0  0  0  0  0  0  0  0
   -6.7340   -3.3380  -23.7540 C   0  0  0  0  0  0  0  0  0  0  0  0
   -6.5070   -4.0960  -25.0600 C   0  0  0  0  0  0  0  0  0  0  0  0
   -5.4860   -3.9140  -25.4120 H   0  0  0  0  0  0  0  0  0  0  0  0
   -7.1480   -3.6670  -25.8360 H   0  0  0  0  0  0  0  0  0  0  0  0
   -6.4270   -2.2970  -23.9120 H   0  0  0  0  0  0  0  0  0  0  0  0
   -7.8040   -3.3130  -23.5190 H   0  0  0  0  0  0  0  0  0  0  0  0
   -4.4190   -5.1060  -23.4520 H   0  0  0  0  0  0  0  0  0  0  0  0
   -5.0580   -5.6320  -21.9130 H   0  0  0  0  0  0  0  0  0  0  0  0
   -7.1520   -6.3450  -22.9540 H   0  0  0  0  0  0  0  0  0  0  0  0
   -5.8190   -7.1280  -23.7530 H   0  0  0  0  0  0  0  0  0  0  0  0
   -6.1900   -6.0830  -25.7570 H   0  0  0  0  0  0  0  0  0  0  0  0
   -8.8940   -5.4580  -24.4830 H   0  0  0  0  0  0  0  0  0  0  0  0
   -8.4140   -7.0270  -25.1370 H   0  0  0  0  0  0  0  0  0  0  0  0
   -8.5640   -5.6300  -26.2090 H   0  0  0  0  0  0  0  0  0  0  0  0
  1  2  1  0  0  0  0
  1 38  1  0  0  0  0
  1 39  1  0  0  0  0
  1 40  1  0  0  0  0
  2  3  1  0  0  0  0
  2 28  1  0  0  0  0
  2 37  1  0  0  0  0
  3  4  1  0  0  0  0
  3 35  1  0  0  0  0
  3 36  1  0  0  0  0
  4  5  1  0  0  0  0
  4 33  1  0  0  0  0
  4 34  1  0  0  0  0
  5  6  1  0  0  0  0
  5 27  1  0  0  0  0
  6  7  2  0  0  0  0
  6  8  1  0  0  0  0
  8  9  1  0  0  0  0
  8 25  1  0  0  0  0
  8 26  1  0  0  0  0
  9 10  2  0  0  0  0
  9 18  1  0  0  0  0
 10 11  1  0  0  0  0
 10 24  1  0  0  0  0
 11 12  2  0  0  0  0
 12 13  1  0  0  0  0
 12 23  1  0  0  0  0
 13 14  2  0  0  0  0
 13 18  1  0  0  0  0
 14 15  1  0  0  0  0
 14 22  1  0  0  0  0
 15 16  2  0  0  0  0
 15 21  1  0  0  0  0
 16 17  1  0  0  0  0
 16 20  1  0  0  0  0
 17 18  2  0  0  0  0
 17 19  1  0  0  0  0
 27 28  1  0  0  0  0
 27 31  1  0  0  0  0
 27 32  1  0  0  0  0
 28 29  1  0  0  0  0
 28 30  1  0  0  0  0
M  END
>  <MODEL>
       4

$$$$
best_conformers_40.pdb
 OpenBabel01292518153D

 40 42  0  0  0  0  0  0  0  0999 V2000
   -5.8810   -0.0170  -26.9460 C   0  0  0  0  0  0  0  0  0  0  0  0
   -6.8890   -0.4260  -25.8740 C   0  0  0  0  0  0  0  0  0  0  0  0
   -6.4950   -1.7410  -25.2120 C   0  0  0  0  0  0  0  0  0  0  0  0
   -7.4720   -2.1280  -24.1120 C   0  0  0  0  0  0  0  0  0  0  0  0
   -7.6170   -1.0430  -23.1490 N   0  0  0  0  0  0  0  0  0  0  0  0
   -7.8540   -1.2630  -21.7900 C   0  0  0  0  0  0  0  0  0  0  0  0
   -8.7830   -0.7560  -21.1980 O   0  0  0  0  0  0  0  0  0  0  0  0
   -6.8000   -2.0920  -21.0350 C   0  0  0  0  0  0  0  0  0  0  0  0
   -6.1300   -1.2170  -19.9950 C   0  0  0  0  0  0  0  0  0  0  0  0
   -6.5110   -1.2760  -18.6800 C   0  0  0  0  0  0  0  0  0  0  0  0
   -6.0170   -0.5060  -17.6720 N   0  0  0  0  0  0  0  0  0  0  0  0
   -5.0950    0.3690  -17.9990 C   0  0  0  0  0  0  0  0  0  0  0  0
   -4.6070    0.5540  -19.3210 C   0  0  0  0  0  0  0  0  0  0  0  0
   -3.6180    1.5230  -19.6300 C   0  0  0  0  0  0  0  0  0  0  0  0
   -3.1750    1.6890  -20.9140 C   0  0  0  0  0  0  0  0  0  0  0  0
   -3.7070    0.8870  -21.9500 C   0  0  0  0  0  0  0  0  0  0  0  0
   -4.6620   -0.0610  -21.6780 C   0  0  0  0  0  0  0  0  0  0  0  0
   -5.1410   -0.2540  -20.3550 C   0  0  0  0  0  0  0  0  0  0  0  0
   -5.0550   -0.6680  -22.4860 H   0  0  0  0  0  0  0  0  0  0  0  0
   -3.3520    1.0260  -22.9680 H   0  0  0  0  0  0  0  0  0  0  0  0
   -2.4230    2.4390  -21.1480 H   0  0  0  0  0  0  0  0  0  0  0  0
   -3.2230    2.1400  -18.8260 H   0  0  0  0  0  0  0  0  0  0  0  0
   -4.6900    0.9890  -17.1970 H   0  0  0  0  0  0  0  0  0  0  0  0
   -7.2700   -1.9880  -18.3640 H   0  0  0  0  0  0  0  0  0  0  0  0
   -7.3200   -2.9110  -20.5240 H   0  0  0  0  0  0  0  0  0  0  0  0
   -6.0600   -2.5250  -21.7210 H   0  0  0  0  0  0  0  0  0  0  0  0
   -8.0340    0.2320  -23.7200 C   0  0  0  0  0  0  0  0  0  0  0  0
   -7.0560    0.6550  -24.8120 C   0  0  0  0  0  0  0  0  0  0  0  0
   -7.3890    1.5890  -25.2750 H   0  0  0  0  0  0  0  0  0  0  0  0
   -6.0820    0.8730  -24.3570 H   0  0  0  0  0  0  0  0  0  0  0  0
   -9.0560    0.1930  -24.1270 H   0  0  0  0  0  0  0  0  0  0  0  0
   -8.0490    0.9630  -22.9120 H   0  0  0  0  0  0  0  0  0  0  0  0
   -7.1390   -3.0210  -23.5850 H   0  0  0  0  0  0  0  0  0  0  0  0
   -8.4410   -2.3840  -24.5770 H   0  0  0  0  0  0  0  0  0  0  0  0
   -6.4350   -2.5380  -25.9620 H   0  0  0  0  0  0  0  0  0  0  0  0
   -5.4930   -1.6440  -24.7790 H   0  0  0  0  0  0  0  0  0  0  0  0
   -7.8650   -0.5700  -26.3590 H   0  0  0  0  0  0  0  0  0  0  0  0
   -4.8890    0.1370  -26.5050 H   0  0  0  0  0  0  0  0  0  0  0  0
   -5.7800   -0.7890  -27.7170 H   0  0  0  0  0  0  0  0  0  0  0  0
   -6.1710    0.9180  -27.4380 H   0  0  0  0  0  0  0  0  0  0  0  0
  1  2  1  0  0  0  0
  1 38  1  0  0  0  0
  1 39  1  0  0  0  0
  1 40  1  0  0  0  0
  2  3  1  0  0  0  0
  2 28  1  0  0  0  0
  2 37  1  0  0  0  0
  3  4  1  0  0  0  0
  3 35  1  0  0  0  0
  3 36  1  0  0  0  0
  4  5  1  0  0  0  0
  4 33  1  0  0  0  0
  4 34  1  0  0  0  0
  5  6  1  0  0  0  0
  5 27  1  0  0  0  0
  6  7  2  0  0  0  0
  6  8  1  0  0  0  0
  8  9  1  0  0  0  0
  8 25  1  0  0  0  0
  8 26  1  0  0  0  0
  9 10  2  0  0  0  0
  9 18  1  0  0  0  0
 10 11  1  0  0  0  0
 10 24  1  0  0  0  0
 11 12  2  0  0  0  0
 12 13  1  0  0  0  0
 12 23  1  0  0  0  0
 13 14  2  0  0  0  0
 13 18  1  0  0  0  0
 14 15  1  0  0  0  0
 14 22  1  0  0  0  0
 15 16  2  0  0  0  0
 15 21  1  0  0  0  0
 16 17  1  0  0  0  0
 16 20  1  0  0  0  0
 17 18  2  0  0  0  0
 17 19  1  0  0  0  0
 27 28  1  0  0  0  0
 27 31  1  0  0  0  0
 27 32  1  0  0  0  0
 28 29  1  0  0  0  0
 28 30  1  0  0  0  0
M  END
>  <MODEL>
       5

$$$$
best_conformers_40.pdb
 OpenBabel01292518153D

 40 42  0  0  0  0  0  0  0  0999 V2000
   -5.8900    0.0060  -26.9420 C   0  0  0  0  0  0  0  0  0  0  0  0
   -6.8960   -0.4070  -25.8700 C   0  0  0  0  0  0  0  0  0  0  0  0
   -7.0620    0.6690  -24.8020 C   0  0  0  0  0  0  0  0  0  0  0  0
   -8.0380    0.2410  -23.7100 C   0  0  0  0  0  0  0  0  0  0  0  0
   -7.6190   -1.0360  -23.1450 N   0  0  0  0  0  0  0  0  0  0  0  0
   -7.8570   -1.2620  -21.7870 C   0  0  0  0  0  0  0  0  0  0  0  0
   -8.7870   -0.7600  -21.1940 O   0  0  0  0  0  0  0  0  0  0  0  0
   -6.8010   -2.0910  -21.0350 C   0  0  0  0  0  0  0  0  0  0  0  0
   -6.1300   -1.2170  -19.9950 C   0  0  0  0  0  0  0  0  0  0  0  0
   -6.5110   -1.2760  -18.6800 C   0  0  0  0  0  0  0  0  0  0  0  0
   -6.0170   -0.5060  -17.6720 N   0  0  0  0  0  0  0  0  0  0  0  0
   -5.0950    0.3690  -17.9990 C   0  0  0  0  0  0  0  0  0  0  0  0
   -4.6070    0.5540  -19.3210 C   0  0  0  0  0  0  0  0  0  0  0  0
   -3.6180    1.5230  -19.6300 C   0  0  0  0  0  0  0  0  0  0  0  0
   -3.1750    1.6890  -20.9140 C   0  0  0  0  0  0  0  0  0  0  0  0
   -3.7070    0.8870  -21.9500 C   0  0  0  0  0  0  0  0  0  0  0  0
   -4.6630   -0.0610  -21.6780 C   0  0  0  0  0  0  0  0  0  0  0  0
   -5.1410   -0.2540  -20.3550 C   0  0  0  0  0  0  0  0  0  0  0  0
   -5.0550   -0.6680  -22.4870 H   0  0  0  0  0  0  0  0  0  0  0  0
   -3.3530    1.0270  -22.9680 H   0  0  0  0  0  0  0  0  0  0  0  0
   -2.4230    2.4390  -21.1480 H   0  0  0  0  0  0  0  0  0  0  0  0
   -3.2230    2.1400  -18.8260 H   0  0  0  0  0  0  0  0  0  0  0  0
   -4.6890    0.9890  -17.1970 H   0  0  0  0  0  0  0  0  0  0  0  0
   -7.2700   -1.9880  -18.3630 H   0  0  0  0  0  0  0  0  0  0  0  0
   -7.3190   -2.9110  -20.5240 H   0  0  0  0  0  0  0  0  0  0  0  0
   -6.0610   -2.5230  -21.7220 H   0  0  0  0  0  0  0  0  0  0  0  0
   -7.4740   -2.1170  -24.1130 C   0  0  0  0  0  0  0  0  0  0  0  0
   -6.5000   -1.7250  -25.2130 C   0  0  0  0  0  0  0  0  0  0  0  0
   -5.4980   -1.6290  -24.7820 H   0  0  0  0  0  0  0  0  0  0  0  0
   -6.4410   -2.5190  -25.9660 H   0  0  0  0  0  0  0  0  0  0  0  0
   -8.4440   -2.3720  -24.5770 H   0  0  0  0  0  0  0  0  0  0  0  0
   -7.1400   -3.0110  -23.5900 H   0  0  0  0  0  0  0  0  0  0  0  0
   -8.0510    0.9690  -22.9000 H   0  0  0  0  0  0  0  0  0  0  0  0
   -9.0600    0.2040  -24.1170 H   0  0  0  0  0  0  0  0  0  0  0  0
   -6.0860    0.8860  -24.3480 H   0  0  0  0  0  0  0  0  0  0  0  0
   -7.3960    1.6050  -25.2620 H   0  0  0  0  0  0  0  0  0  0  0  0
   -7.8730   -0.5510  -26.3530 H   0  0  0  0  0  0  0  0  0  0  0  0
   -4.8980    0.1590  -26.5020 H   0  0  0  0  0  0  0  0  0  0  0  0
   -5.7900   -0.7630  -27.7160 H   0  0  0  0  0  0  0  0  0  0  0  0
   -6.1810    0.9430  -27.4290 H   0  0  0  0  0  0  0  0  0  0  0  0
  1  2  1  0  0  0  0
  1 38  1  0  0  0  0
  1 39  1  0  0  0  0
  1 40  1  0  0  0  0
  2  3  1  0  0  0  0
  2 28  1  0  0  0  0
  2 37  1  0  0  0  0
  3  4  1  0  0  0  0
  3 35  1  0  0  0  0
  3 36  1  0  0  0  0
  4  5  1  0  0  0  0
  4 33  1  0  0  0  0
  4 34  1  0  0  0  0
  5  6  1  0  0  0  0
  5 27  1  0  0  0  0
  6  7  2  0  0  0  0
  6  8  1  0  0  0  0
  8  9  1  0  0  0  0
  8 25  1  0  0  0  0
  8 26  1  0  0  0  0
  9 10  2  0  0  0  0
  9 18  1  0  0  0  0
 10 11  1  0  0  0  0
 10 24  1  0  0  0  0
 11 12  2  0  0  0  0
 12 13  1  0  0  0  0
 12 23  1  0  0  0  0
 13 14  2  0  0  0  0
 13 18  1  0  0  0  0
 14 15  1  0  0  0  0
 14 22  1  0  0  0  0
 15 16  2  0  0  0  0
 15 21  1  0  0  0  0
 16 17  1  0  0  0  0
 16 20  1  0  0  0  0
 17 18  2  0  0  0  0
 17 19  1  0  0  0  0
 27 28  1  0  0  0  0
 27 31  1  0  0  0  0
 27 32  1  0  0  0  0
 28 29  1  0  0  0  0
 28 30  1  0  0  0  0
M  END
>  <MODEL>
       6

$$$$
best_conformers_40.pdb
 OpenBabel01292518153D

 40 42  0  0  0  0  0  0  0  0999 V2000
   -9.4830   -4.7630  -25.4990 C   0  0  0  0  0  0  0  0  0  0  0  0
   -9.2320   -3.2550  -25.5310 C   0  0  0  0  0  0  0  0  0  0  0  0
   -7.7490   -2.9110  -25.3470 C   0  0  0  0  0  0  0  0  0  0  0  0
   -7.3150   -2.7850  -23.8880 C   0  0  0  0  0  0  0  0  0  0  0  0
   -8.1500   -1.8430  -23.1480 N   0  0  0  0  0  0  0  0  0  0  0  0
   -7.8310   -1.3530  -21.9050 C   0  0  0  0  0  0  0  0  0  0  0  0
   -8.3920   -0.3730  -21.4400 O   0  0  0  0  0  0  0  0  0  0  0  0
   -6.7770   -2.0990  -21.0480 C   0  0  0  0  0  0  0  0  0  0  0  0
   -6.1380   -1.2110  -20.0030 C   0  0  0  0  0  0  0  0  0  0  0  0
   -6.5130   -1.2740  -18.6860 C   0  0  0  0  0  0  0  0  0  0  0  0
   -6.0180   -0.5080  -17.6730 N   0  0  0  0  0  0  0  0  0  0  0  0
   -5.0960    0.3680  -17.9980 C   0  0  0  0  0  0  0  0  0  0  0  0
   -4.6070    0.5550  -19.3200 C   0  0  0  0  0  0  0  0  0  0  0  0
   -3.6130    1.5200  -19.6290 C   0  0  0  0  0  0  0  0  0  0  0  0
   -3.1690    1.6840  -20.9130 C   0  0  0  0  0  0  0  0  0  0  0  0
   -3.7050    0.8850  -21.9500 C   0  0  0  0  0  0  0  0  0  0  0  0
   -4.6640   -0.0570  -21.6780 C   0  0  0  0  0  0  0  0  0  0  0  0
   -5.1430   -0.2520  -20.3570 C   0  0  0  0  0  0  0  0  0  0  0  0
   -5.0680   -0.6560  -22.4910 H   0  0  0  0  0  0  0  0  0  0  0  0
   -3.3530    1.0240  -22.9670 H   0  0  0  0  0  0  0  0  0  0  0  0
   -2.4120    2.4290  -21.1500 H   0  0  0  0  0  0  0  0  0  0  0  0
   -3.2140    2.1380  -18.8250 H   0  0  0  0  0  0  0  0  0  0  0  0
   -4.6880    0.9910  -17.1980 H   0  0  0  0  0  0  0  0  0  0  0  0
   -7.2710   -1.9880  -18.3700 H   0  0  0  0  0  0  0  0  0  0  0  0
   -6.0030   -2.5900  -21.6500 H   0  0  0  0  0  0  0  0  0  0  0  0
   -7.3100   -2.9060  -20.5240 H   0  0  0  0  0  0  0  0  0  0  0  0
   -9.3690   -1.3710  -23.8070 C   0  0  0  0  0  0  0  0  0  0  0  0
  -10.0940   -2.5270  -24.4850 C   0  0  0  0  0  0  0  0  0  0  0  0
  -10.4160   -3.2260  -23.7080 H   0  0  0  0  0  0  0  0  0  0  0  0
  -11.0150   -2.1680  -24.9510 H   0  0  0  0  0  0  0  0  0  0  0  0
   -9.1380   -0.5870  -24.5380 H   0  0  0  0  0  0  0  0  0  0  0  0
  -10.0040   -0.9080  -23.0540 H   0  0  0  0  0  0  0  0  0  0  0  0
   -7.3260   -3.7690  -23.4080 H   0  0  0  0  0  0  0  0  0  0  0  0
   -6.2710   -2.4480  -23.8760 H   0  0  0  0  0  0  0  0  0  0  0  0
   -7.5070   -1.9850  -25.8790 H   0  0  0  0  0  0  0  0  0  0  0  0
   -7.1380   -3.6770  -25.8330 H   0  0  0  0  0  0  0  0  0  0  0  0
   -9.5210   -2.9010  -26.5270 H   0  0  0  0  0  0  0  0  0  0  0  0
   -9.1660   -5.1990  -24.5460 H   0  0  0  0  0  0  0  0  0  0  0  0
  -10.5460   -4.9930  -25.6290 H   0  0  0  0  0  0  0  0  0  0  0  0
   -8.9340   -5.2780  -26.2940 H   0  0  0  0  0  0  0  0  0  0  0  0
  1  2  1  0  0  0  0
  1 38  1  0  0  0  0
  1 39  1  0  0  0  0
  1 40  1  0  0  0  0
  2  3  1  0  0  0  0
  2 28  1  0  0  0  0
  2 37  1  0  0  0  0
  3  4  1  0  0  0  0
  3 35  1  0  0  0  0
  3 36  1  0  0  0  0
  4  5  1  0  0  0  0
  4 33  1  0  0  0  0
  4 34  1  0  0  0  0
  5  6  1  0  0  0  0
  5 27  1  0  0  0  0
  6  7  2  0  0  0  0
  6  8  1  0  0  0  0
  8  9  1  0  0  0  0
  8 25  1  0  0  0  0
  8 26  1  0  0  0  0
  9 10  2  0  0  0  0
  9 18  1  0  0  0  0
 10 11  1  0  0  0  0
 10 24  1  0  0  0  0
 11 12  2  0  0  0  0
 12 13  1  0  0  0  0
 12 23  1  0  0  0  0
 13 14  2  0  0  0  0
 13 18  1  0  0  0  0
 14 15  1  0  0  0  0
 14 22  1  0  0  0  0
 15 16  2  0  0  0  0
 15 21  1  0  0  0  0
 16 17  1  0  0  0  0
 16 20  1  0  0  0  0
 17 18  2  0  0  0  0
 17 19  1  0  0  0  0
 27 28  1  0  0  0  0
 27 31  1  0  0  0  0
 27 32  1  0  0  0  0
 28 29  1  0  0  0  0
 28 30  1  0  0  0  0
M  END
>  <MODEL>
       7

$$$$
best_conformers_40.pdb
 OpenBabel01292518153D

 40 42  0  0  0  0  0  0  0  0999 V2000
   -9.4830   -4.7650  -25.4980 C   0  0  0  0  0  0  0  0  0  0  0  0
   -9.2310   -3.2570  -25.5300 C   0  0  0  0  0  0  0  0  0  0  0  0
  -10.0930   -2.5290  -24.4850 C   0  0  0  0  0  0  0  0  0  0  0  0
   -9.3690   -1.3730  -23.8070 C   0  0  0  0  0  0  0  0  0  0  0  0
   -8.1500   -1.8440  -23.1480 N   0  0  0  0  0  0  0  0  0  0  0  0
   -7.8300   -1.3540  -21.9050 C   0  0  0  0  0  0  0  0  0  0  0  0
   -8.3920   -0.3730  -21.4410 O   0  0  0  0  0  0  0  0  0  0  0  0
   -6.7770   -2.0990  -21.0480 C   0  0  0  0  0  0  0  0  0  0  0  0
   -6.1380   -1.2110  -20.0030 C   0  0  0  0  0  0  0  0  0  0  0  0
   -6.5130   -1.2740  -18.6860 C   0  0  0  0  0  0  0  0  0  0  0  0
   -6.0180   -0.5080  -17.6730 N   0  0  0  0  0  0  0  0  0  0  0  0
   -5.0960    0.3680  -17.9980 C   0  0  0  0  0  0  0  0  0  0  0  0
   -4.6070    0.5550  -19.3200 C   0  0  0  0  0  0  0  0  0  0  0  0
   -3.6130    1.5200  -19.6290 C   0  0  0  0  0  0  0  0  0  0  0  0
   -3.1690    1.6840  -20.9130 C   0  0  0  0  0  0  0  0  0  0  0  0
   -3.7050    0.8850  -21.9500 C   0  0  0  0  0  0  0  0  0  0  0  0
   -4.6640   -0.0570  -21.6780 C   0  0  0  0  0  0  0  0  0  0  0  0
   -5.1430   -0.2520  -20.3570 C   0  0  0  0  0  0  0  0  0  0  0  0
   -5.0680   -0.6560  -22.4910 H   0  0  0  0  0  0  0  0  0  0  0  0
   -3.3530    1.0240  -22.9670 H   0  0  0  0  0  0  0  0  0  0  0  0
   -2.4120    2.4290  -21.1500 H   0  0  0  0  0  0  0  0  0  0  0  0
   -3.2140    2.1380  -18.8250 H   0  0  0  0  0  0  0  0  0  0  0  0
   -4.6880    0.9910  -17.1980 H   0  0  0  0  0  0  0  0  0  0  0  0
   -7.2710   -1.9880  -18.3700 H   0  0  0  0  0  0  0  0  0  0  0  0
   -7.3090   -2.9060  -20.5240 H   0  0  0  0  0  0  0  0  0  0  0  0
   -6.0020   -2.5900  -21.6500 H   0  0  0  0  0  0  0  0  0  0  0  0
   -7.3140   -2.7860  -23.8880 C   0  0  0  0  0  0  0  0  0  0  0  0
   -7.7490   -2.9120  -25.3460 C   0  0  0  0  0  0  0  0  0  0  0  0
   -7.5070   -1.9870  -25.8790 H   0  0  0  0  0  0  0  0  0  0  0  0
   -7.1380   -3.6790  -25.8320 H   0  0  0  0  0  0  0  0  0  0  0  0
   -6.2710   -2.4490  -23.8760 H   0  0  0  0  0  0  0  0  0  0  0  0
   -7.3260   -3.7700  -23.4070 H   0  0  0  0  0  0  0  0  0  0  0  0
   -9.1380   -0.5890  -24.5390 H   0  0  0  0  0  0  0  0  0  0  0  0
  -10.0040   -0.9100  -23.0540 H   0  0  0  0  0  0  0  0  0  0  0  0
  -11.0150   -2.1700  -24.9510 H   0  0  0  0  0  0  0  0  0  0  0  0
  -10.4160   -3.2280  -23.7070 H   0  0  0  0  0  0  0  0  0  0  0  0
   -9.5210   -2.9040  -26.5260 H   0  0  0  0  0  0  0  0  0  0  0  0
   -8.9330   -5.2800  -26.2920 H   0  0  0  0  0  0  0  0  0  0  0  0
  -10.5450   -4.9950  -25.6270 H   0  0  0  0  0  0  0  0  0  0  0  0
   -9.1650   -5.2010  -24.5450 H   0  0  0  0  0  0  0  0  0  0  0  0
  1  2  1  0  0  0  0
  1 38  1  0  0  0  0
  1 39  1  0  0  0  0
  1 40  1  0  0  0  0
  2  3  1  0  0  0  0
  2 28  1  0  0  0  0
  2 37  1  0  0  0  0
  3  4  1  0  0  0  0
  3 35  1  0  0  0  0
  3 36  1  0  0  0  0
  4  5  1  0  0  0  0
  4 33  1  0  0  0  0
  4 34  1  0  0  0  0
  5  6  1  0  0  0  0
  5 27  1  0  0  0  0
  6  7  2  0  0  0  0
  6  8  1  0  0  0  0
  8  9  1  0  0  0  0
  8 25  1  0  0  0  0
  8 26  1  0  0  0  0
  9 10  2  0  0  0  0
  9 18  1  0  0  0  0
 10 11  1  0  0  0  0
 10 24  1  0  0  0  0
 11 12  2  0  0  0  0
 12 13  1  0  0  0  0
 12 23  1  0  0  0  0
 13 14  2  0  0  0  0
 13 18  1  0  0  0  0
 14 15  1  0  0  0  0
 14 22  1  0  0  0  0
 15 16  2  0  0  0  0
 15 21  1  0  0  0  0
 16 17  1  0  0  0  0
 16 20  1  0  0  0  0
 17 18  2  0  0  0  0
 17 19  1  0  0  0  0
 27 28  1  0  0  0  0
 27 31  1  0  0  0  0
 27 32  1  0  0  0  0
 28 29  1  0  0  0  0
 28 30  1  0  0  0  0
M  END
>  <MODEL>
       8

$$$$
