best_conformers_49.pdb
 OpenBabel01292518153D

 67 72  0  0  1  0  0  0  0  0999 V2000
   -6.2230   -0.6660  -28.5210 C   0  0  0  0  0  0  0  0  0  0  0  0
   -6.1210   -1.5660  -27.3890 N   0  0  0  0  0  0  0  0  0  0  0  0
   -6.7350   -2.7710  -27.5020 C   0  0  0  0  0  0  0  0  0  0  0  0
   -7.3040   -3.0660  -28.5340 O   0  0  0  0  0  0  0  0  0  0  0  0
   -6.7330   -3.7070  -26.2960 C   0  0  0  0  0  0  0  0  0  0  0  0
   -7.6650   -3.2770  -25.2730 N   0  0  0  0  0  0  0  0  0  0  0  0
   -7.2470   -2.3830  -24.2090 C   0  0  0  0  0  0  0  0  0  0  0  0
   -7.9660   -2.6940  -22.8750 C   0  0  2  0  0  0  0  0  0  0  0  0
   -7.6160   -1.5600  -21.9190 C   0  0  0  0  0  0  0  0  0  0  0  0
   -7.9730   -0.3970  -21.9920 O   0  0  0  0  0  0  0  0  0  0  0  0
   -6.7730   -2.0500  -20.9520 N   0  0  0  0  0  0  0  0  0  0  0  0
   -6.1680   -1.2020  -20.0070 C   0  0  0  0  0  0  0  0  0  0  0  0
   -6.5450   -1.3200  -18.6970 C   0  0  0  0  0  0  0  0  0  0  0  0
   -6.0570   -0.5640  -17.6870 N   0  0  0  0  0  0  0  0  0  0  0  0
   -5.1440    0.3250  -18.0100 C   0  0  0  0  0  0  0  0  0  0  0  0
   -4.6460    0.5250  -19.3300 C   0  0  0  0  0  0  0  0  0  0  0  0
   -3.6540    1.5000  -19.6060 C   0  0  0  0  0  0  0  0  0  0  0  0
   -3.1610    1.6510  -20.8720 C   0  0  0  0  0  0  0  0  0  0  0  0
   -3.6400    0.8360  -21.9250 C   0  0  0  0  0  0  0  0  0  0  0  0
   -4.6130   -0.1030  -21.6900 C   0  0  0  0  0  0  0  0  0  0  0  0
   -5.1530   -0.2710  -20.3790 C   0  0  0  0  0  0  0  0  0  0  0  0
   -4.9790   -0.7140  -22.5130 H   0  0  0  0  0  0  0  0  0  0  0  0
   -3.2350    0.9660  -22.9240 H   0  0  0  0  0  0  0  0  0  0  0  0
   -2.3990    2.3970  -21.0770 H   0  0  0  0  0  0  0  0  0  0  0  0
   -3.2990    2.1180  -18.7850 H   0  0  0  0  0  0  0  0  0  0  0  0
   -4.7480    0.9420  -17.2040 H   0  0  0  0  0  0  0  0  0  0  0  0
   -7.3030   -2.0580  -18.4370 H   0  0  0  0  0  0  0  0  0  0  0  0
   -6.3610   -3.4240  -21.1430 C   0  0  0  0  0  0  0  0  0  0  0  0
   -7.4450   -3.9460  -22.0790 C   0  0  2  0  0  0  0  0  0  0  0  0
   -7.0630   -5.1900  -22.8620 C   0  0  0  0  0  0  0  0  0  0  0  0
   -5.7710   -5.0740  -23.4970 N   0  0  0  0  0  0  0  0  0  0  0  0
   -5.3050   -6.0530  -24.3300 C   0  0  0  0  0  0  0  0  0  0  0  0
   -5.9050   -7.2200  -24.6990 C   0  0  0  0  0  0  0  0  0  0  0  0
   -5.1640   -8.0560  -25.5010 N   0  0  0  0  0  0  0  0  0  0  0  0
   -4.0050   -7.5410  -25.7750 C   0  0  0  0  0  0  0  0  0  0  0  0
   -2.9650   -8.2340  -26.5920 C   0  0  0  0  0  0  0  0  0  0  0  0
   -2.3870   -7.5230  -27.1910 H   0  0  0  0  0  0  0  0  0  0  0  0
   -2.2710   -8.7790  -25.9370 H   0  0  0  0  0  0  0  0  0  0  0  0
   -3.4610   -8.9630  -27.2390 H   0  0  0  0  0  0  0  0  0  0  0  0
   -3.7270   -5.9610  -25.0710 S   0  0  0  0  0  0  0  0  0  0  0  0
   -6.9040   -7.5180  -24.4030 H   0  0  0  0  0  0  0  0  0  0  0  0
   -5.1120   -4.3600  -23.2220 H   0  0  0  0  0  0  0  0  0  0  0  0
   -7.0780   -6.0610  -22.1900 H   0  0  0  0  0  0  0  0  0  0  0  0
   -7.8230   -5.3680  -23.6300 H   0  0  0  0  0  0  0  0  0  0  0  0
   -8.3000   -4.2180  -21.4520 H   0  0  0  0  0  0  0  0  0  0  0  0
   -5.3460   -3.4710  -21.5600 H   0  0  0  0  0  0  0  0  0  0  0  0
   -6.3260   -3.9540  -20.1870 H   0  0  0  0  0  0  0  0  0  0  0  0
   -9.4610   -2.7760  -23.1520 C   0  0  0  0  0  0  0  0  0  0  0  0
  -10.4090   -2.5650  -22.1340 C   0  0  0  0  0  0  0  0  0  0  0  0
  -11.7370   -2.9160  -22.3440 C   0  0  0  0  0  0  0  0  0  0  0  0
  -12.8930   -2.8890  -21.0430 Cl  0  0  0  0  0  0  0  0  0  0  0  0
  -12.1910   -3.3570  -23.5860 C   0  0  0  0  0  0  0  0  0  0  0  0
  -11.2790   -3.4640  -24.6210 C   0  0  0  0  0  0  0  0  0  0  0  0
   -9.9230   -3.2130  -24.3990 C   0  0  0  0  0  0  0  0  0  0  0  0
   -8.9820   -3.5730  -25.4990 C   0  0  0  0  0  0  0  0  0  0  0  0
   -9.3650   -4.1480  -26.5090 O   0  0  0  0  0  0  0  0  0  0  0  0
  -11.5910   -3.7780  -25.6140 H   0  0  0  0  0  0  0  0  0  0  0  0
  -13.2340   -3.6520  -23.6940 H   0  0  0  0  0  0  0  0  0  0  0  0
  -10.1090   -2.1360  -21.1830 H   0  0  0  0  0  0  0  0  0  0  0  0
   -7.4810   -1.3340  -24.4440 H   0  0  0  0  0  0  0  0  0  0  0  0
   -6.1590   -2.4510  -24.0850 H   0  0  0  0  0  0  0  0  0  0  0  0
   -7.0760   -4.6800  -26.6510 H   0  0  0  0  0  0  0  0  0  0  0  0
   -5.7320   -3.8250  -25.8710 H   0  0  0  0  0  0  0  0  0  0  0  0
   -5.6440   -1.2910  -26.5480 H   0  0  0  0  0  0  0  0  0  0  0  0
   -5.7080    0.2710  -28.3070 H   0  0  0  0  0  0  0  0  0  0  0  0
   -5.7860   -1.1370  -29.4070 H   0  0  0  0  0  0  0  0  0  0  0  0
   -7.2750   -0.4630  -28.7440 H   0  0  0  0  0  0  0  0  0  0  0  0
  1  2  1  0  0  0  0
  1 65  1  0  0  0  0
  1 66  1  0  0  0  0
  1 67  1  0  0  0  0
  2  3  1  0  0  0  0
  2 64  1  0  0  0  0
  3  4  2  0  0  0  0
  3  5  1  0  0  0  0
  5  6  1  0  0  0  0
  5 62  1  0  0  0  0
  5 63  1  0  0  0  0
  6  7  1  0  0  0  0
  6 55  1  0  0  0  0
  7  8  1  0  0  0  0
  7 60  1  0  0  0  0
  7 61  1  0  0  0  0
  8  9  1  1  0  0  0
  8 29  1  0  0  0  0
  8 48  1  0  0  0  0
  9 10  2  0  0  0  0
  9 11  1  0  0  0  0
 11 12  1  0  0  0  0
 11 28  1  0  0  0  0
 12 13  2  0  0  0  0
 12 21  1  0  0  0  0
 13 14  1  0  0  0  0
 13 27  1  0  0  0  0
 14 15  2  0  0  0  0
 15 16  1  0  0  0  0
 15 26  1  0  0  0  0
 16 17  2  0  0  0  0
 16 21  1  0  0  0  0
 17 18  1  0  0  0  0
 17 25  1  0  0  0  0
 18 19  2  0  0  0  0
 18 24  1  0  0  0  0
 19 20  1  0  0  0  0
 19 23  1  0  0  0  0
 20 21  2  0  0  0  0
 20 22  1  0  0  0  0
 28 29  1  0  0  0  0
 28 46  1  0  0  0  0
 28 47  1  0  0  0  0
 29 30  1  0  0  0  0
 29 45  1  1  0  0  0
 30 31  1  0  0  0  0
 30 43  1  0  0  0  0
 30 44  1  0  0  0  0
 31 32  1  0  0  0  0
 31 42  1  0  0  0  0
 32 33  2  0  0  0  0
 32 40  1  0  0  0  0
 33 34  1  0  0  0  0
 33 41  1  0  0  0  0
 34 35  2  0  0  0  0
 35 36  1  0  0  0  0
 35 40  1  0  0  0  0
 36 37  1  0  0  0  0
 36 38  1  0  0  0  0
 36 39  1  0  0  0  0
 48 49  2  0  0  0  0
 48 54  1  0  0  0  0
 49 50  1  0  0  0  0
 49 59  1  0  0  0  0
 50 51  1  0  0  0  0
 50 52  2  0  0  0  0
 52 53  1  0  0  0  0
 52 58  1  0  0  0  0
 53 54  2  0  0  0  0
 53 57  1  0  0  0  0
 54 55  1  0  0  0  0
 55 56  2  0  0  0  0
M  END
>  <MODEL>
       1

$$$$
