best_conformers_72.pdb
 OpenBabel01292518153D

 41 44  0  0  0  0  0  0  0  0999 V2000
   -8.1640   -0.2330  -21.6080 O   0  0  0  0  0  0  0  0  0  0  0  0
   -7.8320   -1.3680  -21.8940 C   0  0  0  0  0  0  0  0  0  0  0  0
   -6.7880   -2.1090  -21.0300 C   0  0  0  0  0  0  0  0  0  0  0  0
   -6.1390   -1.2150  -20.0000 C   0  0  0  0  0  0  0  0  0  0  0  0
   -6.5120   -1.2750  -18.6830 C   0  0  0  0  0  0  0  0  0  0  0  0
   -6.0180   -0.5080  -17.6720 N   0  0  0  0  0  0  0  0  0  0  0  0
   -5.0950    0.3690  -17.9980 C   0  0  0  0  0  0  0  0  0  0  0  0
   -4.6080    0.5540  -19.3230 C   0  0  0  0  0  0  0  0  0  0  0  0
   -3.6120    1.5230  -19.6280 C   0  0  0  0  0  0  0  0  0  0  0  0
   -3.1720    1.6860  -20.9150 C   0  0  0  0  0  0  0  0  0  0  0  0
   -3.7090    0.8900  -21.9500 C   0  0  0  0  0  0  0  0  0  0  0  0
   -4.6710   -0.0550  -21.6810 C   0  0  0  0  0  0  0  0  0  0  0  0
   -5.1460   -0.2510  -20.3560 C   0  0  0  0  0  0  0  0  0  0  0  0
   -5.0800   -0.6500  -22.4910 H   0  0  0  0  0  0  0  0  0  0  0  0
   -3.3590    1.0320  -22.9680 H   0  0  0  0  0  0  0  0  0  0  0  0
   -2.4150    2.4320  -21.1510 H   0  0  0  0  0  0  0  0  0  0  0  0
   -3.2120    2.1390  -18.8260 H   0  0  0  0  0  0  0  0  0  0  0  0
   -4.6860    0.9920  -17.2000 H   0  0  0  0  0  0  0  0  0  0  0  0
   -7.2710   -1.9880  -18.3680 H   0  0  0  0  0  0  0  0  0  0  0  0
   -6.0160   -2.5600  -21.6700 H   0  0  0  0  0  0  0  0  0  0  0  0
   -7.2860   -2.9410  -20.5130 H   0  0  0  0  0  0  0  0  0  0  0  0
   -8.3250   -2.0040  -23.0230 N   0  0  0  0  0  0  0  0  0  0  0  0
   -8.3930   -3.4490  -23.1400 C   0  0  0  0  0  0  0  0  0  0  0  0
   -9.5780   -4.1000  -22.4460 C   0  0  0  0  0  0  0  0  0  0  0  0
  -10.9460   -3.8020  -23.0840 C   0  0  0  0  0  0  0  0  0  0  0  0
  -11.3990   -2.3740  -22.8930 C   0  0  0  0  0  0  0  0  0  0  0  0
  -12.9240   -1.9720  -22.1710 S   0  0  0  0  0  0  0  0  0  0  0  0
  -12.6240   -0.2870  -22.3390 C   0  0  0  0  0  0  0  0  0  0  0  0
  -11.4150   -0.0420  -22.9150 C   0  0  0  0  0  0  0  0  0  0  0  0
  -10.7020   -1.2440  -23.2210 C   0  0  0  0  0  0  0  0  0  0  0  0
   -9.3130   -1.2720  -23.8150 C   0  0  0  0  0  0  0  0  0  0  0  0
   -9.3580   -1.7220  -24.8130 H   0  0  0  0  0  0  0  0  0  0  0  0
   -8.9570   -0.2500  -23.9550 H   0  0  0  0  0  0  0  0  0  0  0  0
  -11.0120    0.9500  -23.1080 H   0  0  0  0  0  0  0  0  0  0  0  0
  -13.3420    0.4460  -22.0020 H   0  0  0  0  0  0  0  0  0  0  0  0
  -11.7110   -4.4760  -22.6940 H   0  0  0  0  0  0  0  0  0  0  0  0
  -10.8890   -4.0140  -24.1610 H   0  0  0  0  0  0  0  0  0  0  0  0
   -9.6090   -3.8140  -21.3900 H   0  0  0  0  0  0  0  0  0  0  0  0
   -9.3440   -5.1650  -22.4890 H   0  0  0  0  0  0  0  0  0  0  0  0
   -8.4480   -3.7060  -24.2030 H   0  0  0  0  0  0  0  0  0  0  0  0
   -7.4630   -3.8910  -22.7790 H   0  0  0  0  0  0  0  0  0  0  0  0
  1  2  2  0  0  0  0
  2  3  1  0  0  0  0
  2 22  1  0  0  0  0
  3  4  1  0  0  0  0
  3 20  1  0  0  0  0
  3 21  1  0  0  0  0
  4  5  2  0  0  0  0
  4 13  1  0  0  0  0
  5  6  1  0  0  0  0
  5 19  1  0  0  0  0
  6  7  2  0  0  0  0
  7  8  1  0  0  0  0
  7 18  1  0  0  0  0
  8  9  2  0  0  0  0
  8 13  1  0  0  0  0
  9 10  1  0  0  0  0
  9 17  1  0  0  0  0
 10 11  2  0  0  0  0
 10 16  1  0  0  0  0
 11 12  1  0  0  0  0
 11 15  1  0  0  0  0
 12 13  2  0  0  0  0
 12 14  1  0  0  0  0
 22 23  1  0  0  0  0
 22 31  1  0  0  0  0
 23 24  1  0  0  0  0
 23 40  1  0  0  0  0
 23 41  1  0  0  0  0
 24 25  1  0  0  0  0
 24 38  1  0  0  0  0
 24 39  1  0  0  0  0
 25 26  1  0  0  0  0
 25 36  1  0  0  0  0
 25 37  1  0  0  0  0
 26 27  1  0  0  0  0
 26 30  2  0  0  0  0
 27 28  1  0  0  0  0
 28 29  2  0  0  0  0
 28 35  1  0  0  0  0
 29 30  1  0  0  0  0
 29 34  1  0  0  0  0
 30 31  1  0  0  0  0
 31 32  1  0  0  0  0
 31 33  1  0  0  0  0
M  END
>  <MODEL>
       1

$$$$
best_conformers_72.pdb
 OpenBabel01292518153D

 41 44  0  0  0  0  0  0  0  0999 V2000
   -4.7160   -3.4760  -20.8760 O   0  0  0  0  0  0  0  0  0  0  0  0
   -5.8950   -3.4560  -21.2070 C   0  0  0  0  0  0  0  0  0  0  0  0
   -6.7490   -2.1900  -21.0130 C   0  0  0  0  0  0  0  0  0  0  0  0
   -6.1390   -1.2450  -20.0090 C   0  0  0  0  0  0  0  0  0  0  0  0
   -6.5270   -1.3050  -18.6970 C   0  0  0  0  0  0  0  0  0  0  0  0
   -6.0450   -0.5380  -17.6840 N   0  0  0  0  0  0  0  0  0  0  0  0
   -5.1220    0.3410  -18.0010 C   0  0  0  0  0  0  0  0  0  0  0  0
   -4.6170    0.5200  -19.3180 C   0  0  0  0  0  0  0  0  0  0  0  0
   -3.6280    1.4930  -19.6150 C   0  0  0  0  0  0  0  0  0  0  0  0
   -3.1640    1.6470  -20.8940 C   0  0  0  0  0  0  0  0  0  0  0  0
   -3.6710    0.8320  -21.9310 C   0  0  0  0  0  0  0  0  0  0  0  0
   -4.6250   -0.1210  -21.6680 C   0  0  0  0  0  0  0  0  0  0  0  0
   -5.1310   -0.2970  -20.3540 C   0  0  0  0  0  0  0  0  0  0  0  0
   -4.9980   -0.7520  -22.4690 H   0  0  0  0  0  0  0  0  0  0  0  0
   -3.3090    0.9710  -22.9470 H   0  0  0  0  0  0  0  0  0  0  0  0
   -2.4120    2.3990  -21.1240 H   0  0  0  0  0  0  0  0  0  0  0  0
   -3.2540    2.1220  -18.8110 H   0  0  0  0  0  0  0  0  0  0  0  0
   -4.7210    0.9660  -17.2000 H   0  0  0  0  0  0  0  0  0  0  0  0
   -7.2890   -2.0210  -18.3900 H   0  0  0  0  0  0  0  0  0  0  0  0
   -7.7400   -2.5060  -20.6550 H   0  0  0  0  0  0  0  0  0  0  0  0
   -6.9020   -1.7070  -21.9890 H   0  0  0  0  0  0  0  0  0  0  0  0
   -6.5150   -4.5860  -21.6880 N   0  0  0  0  0  0  0  0  0  0  0  0
   -7.8020   -4.5950  -22.3850 C   0  0  0  0  0  0  0  0  0  0  0  0
   -7.7880   -5.5000  -23.6120 C   0  0  0  0  0  0  0  0  0  0  0  0
   -6.6050   -5.2660  -24.5470 C   0  0  0  0  0  0  0  0  0  0  0  0
   -5.3040   -5.8690  -24.0620 C   0  0  0  0  0  0  0  0  0  0  0  0
   -4.1110   -6.3210  -25.2280 S   0  0  0  0  0  0  0  0  0  0  0  0
   -3.0880   -6.9980  -24.0240 C   0  0  0  0  0  0  0  0  0  0  0  0
   -3.6370   -6.8910  -22.7850 C   0  0  0  0  0  0  0  0  0  0  0  0
   -4.8990   -6.1850  -22.7960 C   0  0  0  0  0  0  0  0  0  0  0  0
   -5.7560   -5.8350  -21.5840 C   0  0  0  0  0  0  0  0  0  0  0  0
   -6.4660   -6.6460  -21.3720 H   0  0  0  0  0  0  0  0  0  0  0  0
   -5.1180   -5.7240  -20.7030 H   0  0  0  0  0  0  0  0  0  0  0  0
   -3.1640   -7.3300  -21.9150 H   0  0  0  0  0  0  0  0  0  0  0  0
   -2.1450   -7.4380  -24.3220 H   0  0  0  0  0  0  0  0  0  0  0  0
   -6.4600   -4.1920  -24.7210 H   0  0  0  0  0  0  0  0  0  0  0  0
   -6.8390   -5.6930  -25.5250 H   0  0  0  0  0  0  0  0  0  0  0  0
   -7.7840   -6.5450  -23.2900 H   0  0  0  0  0  0  0  0  0  0  0  0
   -8.7310   -5.3630  -24.1540 H   0  0  0  0  0  0  0  0  0  0  0  0
   -8.0490   -3.5730  -22.6930 H   0  0  0  0  0  0  0  0  0  0  0  0
   -8.6260   -4.9260  -21.7390 H   0  0  0  0  0  0  0  0  0  0  0  0
  1  2  2  0  0  0  0
  2  3  1  0  0  0  0
  2 22  1  0  0  0  0
  3  4  1  0  0  0  0
  3 20  1  0  0  0  0
  3 21  1  0  0  0  0
  4  5  2  0  0  0  0
  4 13  1  0  0  0  0
  5  6  1  0  0  0  0
  5 19  1  0  0  0  0
  6  7  2  0  0  0  0
  7  8  1  0  0  0  0
  7 18  1  0  0  0  0
  8  9  2  0  0  0  0
  8 13  1  0  0  0  0
  9 10  1  0  0  0  0
  9 17  1  0  0  0  0
 10 11  2  0  0  0  0
 10 16  1  0  0  0  0
 11 12  1  0  0  0  0
 11 15  1  0  0  0  0
 12 13  2  0  0  0  0
 12 14  1  0  0  0  0
 22 23  1  0  0  0  0
 22 31  1  0  0  0  0
 23 24  1  0  0  0  0
 23 40  1  0  0  0  0
 23 41  1  0  0  0  0
 24 25  1  0  0  0  0
 24 38  1  0  0  0  0
 24 39  1  0  0  0  0
 25 26  1  0  0  0  0
 25 36  1  0  0  0  0
 25 37  1  0  0  0  0
 26 27  1  0  0  0  0
 26 30  2  0  0  0  0
 27 28  1  0  0  0  0
 28 29  2  0  0  0  0
 28 35  1  0  0  0  0
 29 30  1  0  0  0  0
 29 34  1  0  0  0  0
 30 31  1  0  0  0  0
 31 32  1  0  0  0  0
 31 33  1  0  0  0  0
M  END
>  <MODEL>
       2

$$$$
best_conformers_72.pdb
 OpenBabel01292518153D

 41 44  0  0  0  0  0  0  0  0999 V2000
   -4.6850   -3.4090  -20.9800 O   0  0  0  0  0  0  0  0  0  0  0  0
   -5.8740   -3.4040  -21.2600 C   0  0  0  0  0  0  0  0  0  0  0  0
   -6.7470   -2.1620  -21.0100 C   0  0  0  0  0  0  0  0  0  0  0  0
   -6.1400   -1.2200  -20.0010 C   0  0  0  0  0  0  0  0  0  0  0  0
   -6.5150   -1.2890  -18.6830 C   0  0  0  0  0  0  0  0  0  0  0  0
   -6.0240   -0.5190  -17.6770 N   0  0  0  0  0  0  0  0  0  0  0  0
   -5.1020    0.3590  -18.0030 C   0  0  0  0  0  0  0  0  0  0  0  0
   -4.6050    0.5390  -19.3230 C   0  0  0  0  0  0  0  0  0  0  0  0
   -3.6110    1.5070  -19.6220 C   0  0  0  0  0  0  0  0  0  0  0  0
   -3.1550    1.6540  -20.9050 C   0  0  0  0  0  0  0  0  0  0  0  0
   -3.6690    0.8430  -21.9390 C   0  0  0  0  0  0  0  0  0  0  0  0
   -4.6310   -0.1020  -21.6730 C   0  0  0  0  0  0  0  0  0  0  0  0
   -5.1290   -0.2740  -20.3530 C   0  0  0  0  0  0  0  0  0  0  0  0
   -5.0120   -0.7280  -22.4720 H   0  0  0  0  0  0  0  0  0  0  0  0
   -3.3060    0.9770  -22.9540 H   0  0  0  0  0  0  0  0  0  0  0  0
   -2.3990    2.4010  -21.1290 H   0  0  0  0  0  0  0  0  0  0  0  0
   -3.2370    2.1270  -18.8120 H   0  0  0  0  0  0  0  0  0  0  0  0
   -4.7040    0.9790  -17.1990 H   0  0  0  0  0  0  0  0  0  0  0  0
   -7.2760   -2.0050  -18.3680 H   0  0  0  0  0  0  0  0  0  0  0  0
   -7.7220   -2.5030  -20.6430 H   0  0  0  0  0  0  0  0  0  0  0  0
   -6.9470   -1.6580  -21.9660 H   0  0  0  0  0  0  0  0  0  0  0  0
   -6.4830   -4.5280  -21.7520 N   0  0  0  0  0  0  0  0  0  0  0  0
   -5.7210   -5.7700  -21.6930 C   0  0  0  0  0  0  0  0  0  0  0  0
   -4.8090   -6.0240  -22.9130 C   0  0  0  0  0  0  0  0  0  0  0  0
   -5.4280   -5.6110  -24.2630 C   0  0  0  0  0  0  0  0  0  0  0  0
   -6.8670   -6.0450  -24.3360 C   0  0  0  0  0  0  0  0  0  0  0  0
   -7.4700   -7.2280  -25.4470 S   0  0  0  0  0  0  0  0  0  0  0  0
   -9.0820   -6.9800  -24.9130 C   0  0  0  0  0  0  0  0  0  0  0  0
   -9.1520   -6.0060  -23.9680 C   0  0  0  0  0  0  0  0  0  0  0  0
   -7.8780   -5.5220  -23.5790 C   0  0  0  0  0  0  0  0  0  0  0  0
   -7.7630   -4.5400  -22.4380 C   0  0  0  0  0  0  0  0  0  0  0  0
   -7.9550   -3.5360  -22.8230 H   0  0  0  0  0  0  0  0  0  0  0  0
   -8.5950   -4.7870  -21.7600 H   0  0  0  0  0  0  0  0  0  0  0  0
  -10.0640   -5.5580  -23.5860 H   0  0  0  0  0  0  0  0  0  0  0  0
   -9.8640   -7.6010  -25.3210 H   0  0  0  0  0  0  0  0  0  0  0  0
   -5.4380   -4.5110  -24.3160 H   0  0  0  0  0  0  0  0  0  0  0  0
   -4.8380   -5.9830  -25.1160 H   0  0  0  0  0  0  0  0  0  0  0  0
   -3.8570   -5.5010  -22.7790 H   0  0  0  0  0  0  0  0  0  0  0  0
   -4.6010   -7.1020  -22.9180 H   0  0  0  0  0  0  0  0  0  0  0  0
   -6.4680   -6.5700  -21.6080 H   0  0  0  0  0  0  0  0  0  0  0  0
   -5.1140   -5.7400  -20.7820 H   0  0  0  0  0  0  0  0  0  0  0  0
  1  2  2  0  0  0  0
  2  3  1  0  0  0  0
  2 22  1  0  0  0  0
  3  4  1  0  0  0  0
  3 20  1  0  0  0  0
  3 21  1  0  0  0  0
  4  5  2  0  0  0  0
  4 13  1  0  0  0  0
  5  6  1  0  0  0  0
  5 19  1  0  0  0  0
  6  7  2  0  0  0  0
  7  8  1  0  0  0  0
  7 18  1  0  0  0  0
  8  9  2  0  0  0  0
  8 13  1  0  0  0  0
  9 10  1  0  0  0  0
  9 17  1  0  0  0  0
 10 11  2  0  0  0  0
 10 16  1  0  0  0  0
 11 12  1  0  0  0  0
 11 15  1  0  0  0  0
 12 13  2  0  0  0  0
 12 14  1  0  0  0  0
 22 23  1  0  0  0  0
 22 31  1  0  0  0  0
 23 24  1  0  0  0  0
 23 40  1  0  0  0  0
 23 41  1  0  0  0  0
 24 25  1  0  0  0  0
 24 38  1  0  0  0  0
 24 39  1  0  0  0  0
 25 26  1  0  0  0  0
 25 36  1  0  0  0  0
 25 37  1  0  0  0  0
 26 27  1  0  0  0  0
 26 30  2  0  0  0  0
 27 28  1  0  0  0  0
 28 29  2  0  0  0  0
 28 35  1  0  0  0  0
 29 30  1  0  0  0  0
 29 34  1  0  0  0  0
 30 31  1  0  0  0  0
 31 32  1  0  0  0  0
 31 33  1  0  0  0  0
M  END
>  <MODEL>
       3

$$$$
best_conformers_72.pdb
 OpenBabel01292518153D

 41 44  0  0  0  0  0  0  0  0999 V2000
   -4.9250   -3.6410  -20.6410 O   0  0  0  0  0  0  0  0  0  0  0  0
   -5.8010   -3.3030  -21.4170 C   0  0  0  0  0  0  0  0  0  0  0  0
   -6.7470   -2.1320  -21.0370 C   0  0  0  0  0  0  0  0  0  0  0  0
   -6.1390   -1.2120  -20.0040 C   0  0  0  0  0  0  0  0  0  0  0  0
   -6.5040   -1.2810  -18.6820 C   0  0  0  0  0  0  0  0  0  0  0  0
   -6.0140   -0.5120  -17.6710 N   0  0  0  0  0  0  0  0  0  0  0  0
   -5.0960    0.3700  -17.9970 C   0  0  0  0  0  0  0  0  0  0  0  0
   -4.6050    0.5520  -19.3220 C   0  0  0  0  0  0  0  0  0  0  0  0
   -3.6070    1.5160  -19.6270 C   0  0  0  0  0  0  0  0  0  0  0  0
   -3.1510    1.6680  -20.9100 C   0  0  0  0  0  0  0  0  0  0  0  0
   -3.6770    0.8600  -21.9430 C   0  0  0  0  0  0  0  0  0  0  0  0
   -4.6430   -0.0780  -21.6740 C   0  0  0  0  0  0  0  0  0  0  0  0
   -5.1360   -0.2590  -20.3540 C   0  0  0  0  0  0  0  0  0  0  0  0
   -5.0320   -0.6880  -22.4830 H   0  0  0  0  0  0  0  0  0  0  0  0
   -3.3140    0.9870  -22.9590 H   0  0  0  0  0  0  0  0  0  0  0  0
   -2.3910    2.4080  -21.1460 H   0  0  0  0  0  0  0  0  0  0  0  0
   -3.2110    2.1360  -18.8260 H   0  0  0  0  0  0  0  0  0  0  0  0
   -4.6880    0.9920  -17.1990 H   0  0  0  0  0  0  0  0  0  0  0  0
   -7.2600   -1.9980  -18.3680 H   0  0  0  0  0  0  0  0  0  0  0  0
   -7.6540   -2.5820  -20.6100 H   0  0  0  0  0  0  0  0  0  0  0  0
   -7.0870   -1.5560  -21.9070 H   0  0  0  0  0  0  0  0  0  0  0  0
   -5.9980   -3.9770  -22.6050 N   0  0  0  0  0  0  0  0  0  0  0  0
   -5.6670   -5.3980  -22.6880 C   0  0  0  0  0  0  0  0  0  0  0  0
   -6.8360   -6.2680  -23.1650 C   0  0  0  0  0  0  0  0  0  0  0  0
   -8.1880   -5.8910  -22.5560 C   0  0  0  0  0  0  0  0  0  0  0  0
   -8.8190   -4.6430  -23.1470 C   0  0  0  0  0  0  0  0  0  0  0  0
  -10.5370   -4.4310  -23.2650 S   0  0  0  0  0  0  0  0  0  0  0  0
  -10.3880   -2.8870  -23.9660 C   0  0  0  0  0  0  0  0  0  0  0  0
   -9.0830   -2.5450  -24.1390 C   0  0  0  0  0  0  0  0  0  0  0  0
   -8.1840   -3.5500  -23.6700 C   0  0  0  0  0  0  0  0  0  0  0  0
   -6.6920   -3.4160  -23.7380 C   0  0  0  0  0  0  0  0  0  0  0  0
   -6.4300   -2.3630  -23.8650 H   0  0  0  0  0  0  0  0  0  0  0  0
   -6.3230   -3.9000  -24.6480 H   0  0  0  0  0  0  0  0  0  0  0  0
   -8.7660   -1.6060  -24.5770 H   0  0  0  0  0  0  0  0  0  0  0  0
  -11.2790   -2.3300  -24.2050 H   0  0  0  0  0  0  0  0  0  0  0  0
   -8.0380   -5.7370  -21.4860 H   0  0  0  0  0  0  0  0  0  0  0  0
   -8.8690   -6.7430  -22.6300 H   0  0  0  0  0  0  0  0  0  0  0  0
   -6.6090   -7.3150  -22.9250 H   0  0  0  0  0  0  0  0  0  0  0  0
   -6.9260   -6.2430  -24.2520 H   0  0  0  0  0  0  0  0  0  0  0  0
   -4.8100   -5.5390  -23.3560 H   0  0  0  0  0  0  0  0  0  0  0  0
   -5.3530   -5.7130  -21.6940 H   0  0  0  0  0  0  0  0  0  0  0  0
  1  2  2  0  0  0  0
  2  3  1  0  0  0  0
  2 22  1  0  0  0  0
  3  4  1  0  0  0  0
  3 20  1  0  0  0  0
  3 21  1  0  0  0  0
  4  5  2  0  0  0  0
  4 13  1  0  0  0  0
  5  6  1  0  0  0  0
  5 19  1  0  0  0  0
  6  7  2  0  0  0  0
  7  8  1  0  0  0  0
  7 18  1  0  0  0  0
  8  9  2  0  0  0  0
  8 13  1  0  0  0  0
  9 10  1  0  0  0  0
  9 17  1  0  0  0  0
 10 11  2  0  0  0  0
 10 16  1  0  0  0  0
 11 12  1  0  0  0  0
 11 15  1  0  0  0  0
 12 13  2  0  0  0  0
 12 14  1  0  0  0  0
 22 23  1  0  0  0  0
 22 31  1  0  0  0  0
 23 24  1  0  0  0  0
 23 40  1  0  0  0  0
 23 41  1  0  0  0  0
 24 25  1  0  0  0  0
 24 38  1  0  0  0  0
 24 39  1  0  0  0  0
 25 26  1  0  0  0  0
 25 36  1  0  0  0  0
 25 37  1  0  0  0  0
 26 27  1  0  0  0  0
 26 30  2  0  0  0  0
 27 28  1  0  0  0  0
 28 29  2  0  0  0  0
 28 35  1  0  0  0  0
 29 30  1  0  0  0  0
 29 34  1  0  0  0  0
 30 31  1  0  0  0  0
 31 32  1  0  0  0  0
 31 33  1  0  0  0  0
M  END
>  <MODEL>
       4

$$$$
best_conformers_72.pdb
 OpenBabel01292518153D

 41 44  0  0  0  0  0  0  0  0999 V2000
   -8.4090   -0.4060  -21.4380 O   0  0  0  0  0  0  0  0  0  0  0  0
   -7.7690   -1.3140  -21.9320 C   0  0  0  0  0  0  0  0  0  0  0  0
   -6.7810   -2.0980  -21.0380 C   0  0  0  0  0  0  0  0  0  0  0  0
   -6.1370   -1.2130  -19.9960 C   0  0  0  0  0  0  0  0  0  0  0  0
   -6.5130   -1.2740  -18.6780 C   0  0  0  0  0  0  0  0  0  0  0  0
   -6.0160   -0.5070  -17.6680 N   0  0  0  0  0  0  0  0  0  0  0  0
   -5.0940    0.3690  -17.9980 C   0  0  0  0  0  0  0  0  0  0  0  0
   -4.6060    0.5550  -19.3240 C   0  0  0  0  0  0  0  0  0  0  0  0
   -3.6130    1.5240  -19.6300 C   0  0  0  0  0  0  0  0  0  0  0  0
   -3.1700    1.6860  -20.9150 C   0  0  0  0  0  0  0  0  0  0  0  0
   -3.7060    0.8830  -21.9500 C   0  0  0  0  0  0  0  0  0  0  0  0
   -4.6710   -0.0570  -21.6850 C   0  0  0  0  0  0  0  0  0  0  0  0
   -5.1440   -0.2520  -20.3570 C   0  0  0  0  0  0  0  0  0  0  0  0
   -5.0700   -0.6590  -22.4990 H   0  0  0  0  0  0  0  0  0  0  0  0
   -3.3400    1.0160  -22.9630 H   0  0  0  0  0  0  0  0  0  0  0  0
   -2.4130    2.4310  -21.1490 H   0  0  0  0  0  0  0  0  0  0  0  0
   -3.2140    2.1410  -18.8270 H   0  0  0  0  0  0  0  0  0  0  0  0
   -4.6860    0.9930  -17.2010 H   0  0  0  0  0  0  0  0  0  0  0  0
   -7.2730   -1.9900  -18.3690 H   0  0  0  0  0  0  0  0  0  0  0  0
   -6.0080   -2.6090  -21.6250 H   0  0  0  0  0  0  0  0  0  0  0  0
   -7.3620   -2.8760  -20.5270 H   0  0  0  0  0  0  0  0  0  0  0  0
   -7.9160   -1.6610  -23.2660 N   0  0  0  0  0  0  0  0  0  0  0  0
   -7.5100   -2.9350  -23.8370 C   0  0  0  0  0  0  0  0  0  0  0  0
   -6.1470   -2.9680  -24.5310 C   0  0  0  0  0  0  0  0  0  0  0  0
   -6.0490   -2.0760  -25.7790 C   0  0  0  0  0  0  0  0  0  0  0  0
   -6.0340   -0.6040  -25.4530 C   0  0  0  0  0  0  0  0  0  0  0  0
   -4.6980    0.4270  -25.8510 S   0  0  0  0  0  0  0  0  0  0  0  0
   -5.4540    1.7860  -25.1060 C   0  0  0  0  0  0  0  0  0  0  0  0
   -6.6620    1.4600  -24.5660 C   0  0  0  0  0  0  0  0  0  0  0  0
   -6.9960    0.0840  -24.7620 C   0  0  0  0  0  0  0  0  0  0  0  0
   -8.2310   -0.5880  -24.2130 C   0  0  0  0  0  0  0  0  0  0  0  0
   -8.8650    0.1510  -23.7190 H   0  0  0  0  0  0  0  0  0  0  0  0
   -8.8140   -1.0070  -25.0420 H   0  0  0  0  0  0  0  0  0  0  0  0
   -7.3080    2.1560  -24.0310 H   0  0  0  0  0  0  0  0  0  0  0  0
   -4.9710    2.7530  -25.0750 H   0  0  0  0  0  0  0  0  0  0  0  0
   -5.1550   -2.3390  -26.3510 H   0  0  0  0  0  0  0  0  0  0  0  0
   -6.9040   -2.2900  -26.4380 H   0  0  0  0  0  0  0  0  0  0  0  0
   -5.9190   -4.0060  -24.8120 H   0  0  0  0  0  0  0  0  0  0  0  0
   -5.3680   -2.6660  -23.8240 H   0  0  0  0  0  0  0  0  0  0  0  0
   -7.5590   -3.6920  -23.0510 H   0  0  0  0  0  0  0  0  0  0  0  0
   -8.2730   -3.2200  -24.5700 H   0  0  0  0  0  0  0  0  0  0  0  0
  1  2  2  0  0  0  0
  2  3  1  0  0  0  0
  2 22  1  0  0  0  0
  3  4  1  0  0  0  0
  3 20  1  0  0  0  0
  3 21  1  0  0  0  0
  4  5  2  0  0  0  0
  4 13  1  0  0  0  0
  5  6  1  0  0  0  0
  5 19  1  0  0  0  0
  6  7  2  0  0  0  0
  7  8  1  0  0  0  0
  7 18  1  0  0  0  0
  8  9  2  0  0  0  0
  8 13  1  0  0  0  0
  9 10  1  0  0  0  0
  9 17  1  0  0  0  0
 10 11  2  0  0  0  0
 10 16  1  0  0  0  0
 11 12  1  0  0  0  0
 11 15  1  0  0  0  0
 12 13  2  0  0  0  0
 12 14  1  0  0  0  0
 22 23  1  0  0  0  0
 22 31  1  0  0  0  0
 23 24  1  0  0  0  0
 23 40  1  0  0  0  0
 23 41  1  0  0  0  0
 24 25  1  0  0  0  0
 24 38  1  0  0  0  0
 24 39  1  0  0  0  0
 25 26  1  0  0  0  0
 25 36  1  0  0  0  0
 25 37  1  0  0  0  0
 26 27  1  0  0  0  0
 26 30  2  0  0  0  0
 27 28  1  0  0  0  0
 28 29  2  0  0  0  0
 28 35  1  0  0  0  0
 29 30  1  0  0  0  0
 29 34  1  0  0  0  0
 30 31  1  0  0  0  0
 31 32  1  0  0  0  0
 31 33  1  0  0  0  0
M  END
>  <MODEL>
       5

$$$$
best_conformers_72.pdb
 OpenBabel01292518153D

 41 44  0  0  0  0  0  0  0  0999 V2000
   -8.6070   -0.5820  -21.3310 O   0  0  0  0  0  0  0  0  0  0  0  0
   -7.7990   -1.3050  -21.8870 C   0  0  0  0  0  0  0  0  0  0  0  0
   -6.7820   -2.0980  -21.0370 C   0  0  0  0  0  0  0  0  0  0  0  0
   -6.1340   -1.2140  -19.9940 C   0  0  0  0  0  0  0  0  0  0  0  0
   -6.5120   -1.2740  -18.6770 C   0  0  0  0  0  0  0  0  0  0  0  0
   -6.0160   -0.5060  -17.6680 N   0  0  0  0  0  0  0  0  0  0  0  0
   -5.0940    0.3700  -17.9970 C   0  0  0  0  0  0  0  0  0  0  0  0
   -4.6050    0.5540  -19.3220 C   0  0  0  0  0  0  0  0  0  0  0  0
   -3.6110    1.5240  -19.6280 C   0  0  0  0  0  0  0  0  0  0  0  0
   -3.1690    1.6850  -20.9140 C   0  0  0  0  0  0  0  0  0  0  0  0
   -3.7040    0.8860  -21.9490 C   0  0  0  0  0  0  0  0  0  0  0  0
   -4.6630   -0.0600  -21.6790 C   0  0  0  0  0  0  0  0  0  0  0  0
   -5.1390   -0.2530  -20.3530 C   0  0  0  0  0  0  0  0  0  0  0  0
   -5.0630   -0.6590  -22.4910 H   0  0  0  0  0  0  0  0  0  0  0  0
   -3.3500    1.0240  -22.9670 H   0  0  0  0  0  0  0  0  0  0  0  0
   -2.4130    2.4300  -21.1510 H   0  0  0  0  0  0  0  0  0  0  0  0
   -3.2120    2.1410  -18.8260 H   0  0  0  0  0  0  0  0  0  0  0  0
   -4.6860    0.9920  -17.2000 H   0  0  0  0  0  0  0  0  0  0  0  0
   -7.2720   -1.9900  -18.3680 H   0  0  0  0  0  0  0  0  0  0  0  0
   -7.3330   -2.8950  -20.5250 H   0  0  0  0  0  0  0  0  0  0  0  0
   -6.0100   -2.5770  -21.6500 H   0  0  0  0  0  0  0  0  0  0  0  0
   -7.7230   -1.3920  -23.2600 N   0  0  0  0  0  0  0  0  0  0  0  0
   -8.2530   -0.2780  -24.0510 C   0  0  0  0  0  0  0  0  0  0  0  0
   -9.7490   -0.3860  -24.3670 C   0  0  0  0  0  0  0  0  0  0  0  0
  -10.2060   -1.8260  -24.6550 C   0  0  0  0  0  0  0  0  0  0  0  0
   -9.2570   -2.5670  -25.5610 C   0  0  0  0  0  0  0  0  0  0  0  0
   -9.6930   -3.0960  -27.1550 S   0  0  0  0  0  0  0  0  0  0  0  0
   -8.1220   -3.7380  -27.4270 C   0  0  0  0  0  0  0  0  0  0  0  0
   -7.3070   -3.5620  -26.3510 C   0  0  0  0  0  0  0  0  0  0  0  0
   -7.9510   -2.8710  -25.2780 C   0  0  0  0  0  0  0  0  0  0  0  0
   -7.2550   -2.5810  -23.9620 C   0  0  0  0  0  0  0  0  0  0  0  0
   -6.1750   -2.5110  -24.1580 H   0  0  0  0  0  0  0  0  0  0  0  0
   -7.3770   -3.4580  -23.3140 H   0  0  0  0  0  0  0  0  0  0  0  0
   -6.2800   -3.9180  -26.3150 H   0  0  0  0  0  0  0  0  0  0  0  0
   -7.8840   -4.2200  -28.3660 H   0  0  0  0  0  0  0  0  0  0  0  0
  -11.2160   -1.8250  -25.0690 H   0  0  0  0  0  0  0  0  0  0  0  0
  -10.2640   -2.3680  -23.7020 H   0  0  0  0  0  0  0  0  0  0  0  0
   -9.9720    0.2490  -25.2340 H   0  0  0  0  0  0  0  0  0  0  0  0
  -10.3160    0.0150  -23.5230 H   0  0  0  0  0  0  0  0  0  0  0  0
   -7.6830   -0.2490  -24.9860 H   0  0  0  0  0  0  0  0  0  0  0  0
   -8.0420    0.6550  -23.5250 H   0  0  0  0  0  0  0  0  0  0  0  0
  1  2  2  0  0  0  0
  2  3  1  0  0  0  0
  2 22  1  0  0  0  0
  3  4  1  0  0  0  0
  3 20  1  0  0  0  0
  3 21  1  0  0  0  0
  4  5  2  0  0  0  0
  4 13  1  0  0  0  0
  5  6  1  0  0  0  0
  5 19  1  0  0  0  0
  6  7  2  0  0  0  0
  7  8  1  0  0  0  0
  7 18  1  0  0  0  0
  8  9  2  0  0  0  0
  8 13  1  0  0  0  0
  9 10  1  0  0  0  0
  9 17  1  0  0  0  0
 10 11  2  0  0  0  0
 10 16  1  0  0  0  0
 11 12  1  0  0  0  0
 11 15  1  0  0  0  0
 12 13  2  0  0  0  0
 12 14  1  0  0  0  0
 22 23  1  0  0  0  0
 22 31  1  0  0  0  0
 23 24  1  0  0  0  0
 23 40  1  0  0  0  0
 23 41  1  0  0  0  0
 24 25  1  0  0  0  0
 24 38  1  0  0  0  0
 24 39  1  0  0  0  0
 25 26  1  0  0  0  0
 25 36  1  0  0  0  0
 25 37  1  0  0  0  0
 26 27  1  0  0  0  0
 26 30  2  0  0  0  0
 27 28  1  0  0  0  0
 28 29  2  0  0  0  0
 28 35  1  0  0  0  0
 29 30  1  0  0  0  0
 29 34  1  0  0  0  0
 30 31  1  0  0  0  0
 31 32  1  0  0  0  0
 31 33  1  0  0  0  0
M  END
>  <MODEL>
       6

$$$$
best_conformers_72.pdb
 OpenBabel01292518153D

 41 44  0  0  0  0  0  0  0  0999 V2000
   -4.8180   -3.5390  -20.7690 O   0  0  0  0  0  0  0  0  0  0  0  0
   -5.7980   -3.2770  -21.4460 C   0  0  0  0  0  0  0  0  0  0  0  0
   -6.7530   -2.1350  -21.0270 C   0  0  0  0  0  0  0  0  0  0  0  0
   -6.1420   -1.2110  -20.0010 C   0  0  0  0  0  0  0  0  0  0  0  0
   -6.5060   -1.2810  -18.6820 C   0  0  0  0  0  0  0  0  0  0  0  0
   -6.0140   -0.5120  -17.6710 N   0  0  0  0  0  0  0  0  0  0  0  0
   -5.0970    0.3690  -17.9980 C   0  0  0  0  0  0  0  0  0  0  0  0
   -4.6050    0.5510  -19.3220 C   0  0  0  0  0  0  0  0  0  0  0  0
   -3.6060    1.5150  -19.6270 C   0  0  0  0  0  0  0  0  0  0  0  0
   -3.1510    1.6660  -20.9090 C   0  0  0  0  0  0  0  0  0  0  0  0
   -3.6760    0.8570  -21.9420 C   0  0  0  0  0  0  0  0  0  0  0  0
   -4.6420   -0.0820  -21.6750 C   0  0  0  0  0  0  0  0  0  0  0  0
   -5.1360   -0.2610  -20.3540 C   0  0  0  0  0  0  0  0  0  0  0  0
   -5.0340   -0.6960  -22.4800 H   0  0  0  0  0  0  0  0  0  0  0  0
   -3.3120    0.9850  -22.9570 H   0  0  0  0  0  0  0  0  0  0  0  0
   -2.3890    2.4070  -21.1440 H   0  0  0  0  0  0  0  0  0  0  0  0
   -3.2120    2.1360  -18.8240 H   0  0  0  0  0  0  0  0  0  0  0  0
   -4.6880    0.9910  -17.1990 H   0  0  0  0  0  0  0  0  0  0  0  0
   -7.2600   -1.9980  -18.3640 H   0  0  0  0  0  0  0  0  0  0  0  0
   -7.6630   -2.5870  -20.6070 H   0  0  0  0  0  0  0  0  0  0  0  0
   -7.0750   -1.5590  -21.9060 H   0  0  0  0  0  0  0  0  0  0  0  0
   -6.0920   -3.9610  -22.6080 N   0  0  0  0  0  0  0  0  0  0  0  0
   -7.4360   -4.1380  -23.1310 C   0  0  0  0  0  0  0  0  0  0  0  0
   -8.2740   -5.1530  -22.3440 C   0  0  0  0  0  0  0  0  0  0  0  0
   -7.4460   -6.2800  -21.7090 C   0  0  0  0  0  0  0  0  0  0  0  0
   -6.4540   -6.9120  -22.6480 C   0  0  0  0  0  0  0  0  0  0  0  0
   -6.4580   -8.5980  -22.9660 S   0  0  0  0  0  0  0  0  0  0  0  0
   -5.1260   -8.4590  -24.0600 C   0  0  0  0  0  0  0  0  0  0  0  0
   -4.6630   -7.1870  -24.1290 C   0  0  0  0  0  0  0  0  0  0  0  0
   -5.4510   -6.2920  -23.3310 C   0  0  0  0  0  0  0  0  0  0  0  0
   -5.0940   -4.8440  -23.1870 C   0  0  0  0  0  0  0  0  0  0  0  0
   -4.8040   -4.4640  -24.1800 H   0  0  0  0  0  0  0  0  0  0  0  0
   -4.2400   -4.8600  -22.5190 H   0  0  0  0  0  0  0  0  0  0  0  0
   -3.7850   -6.8950  -24.7100 H   0  0  0  0  0  0  0  0  0  0  0  0
   -4.7640   -9.3160  -24.6140 H   0  0  0  0  0  0  0  0  0  0  0  0
   -6.8700   -5.8870  -20.8630 H   0  0  0  0  0  0  0  0  0  0  0  0
   -8.1060   -7.0450  -21.3030 H   0  0  0  0  0  0  0  0  0  0  0  0
   -8.8410   -4.6170  -21.5800 H   0  0  0  0  0  0  0  0  0  0  0  0
   -9.0270   -5.5870  -23.0090 H   0  0  0  0  0  0  0  0  0  0  0  0
   -7.9380   -3.1740  -23.1860 H   0  0  0  0  0  0  0  0  0  0  0  0
   -7.3220   -4.4940  -24.1570 H   0  0  0  0  0  0  0  0  0  0  0  0
  1  2  2  0  0  0  0
  2  3  1  0  0  0  0
  2 22  1  0  0  0  0
  3  4  1  0  0  0  0
  3 20  1  0  0  0  0
  3 21  1  0  0  0  0
  4  5  2  0  0  0  0
  4 13  1  0  0  0  0
  5  6  1  0  0  0  0
  5 19  1  0  0  0  0
  6  7  2  0  0  0  0
  7  8  1  0  0  0  0
  7 18  1  0  0  0  0
  8  9  2  0  0  0  0
  8 13  1  0  0  0  0
  9 10  1  0  0  0  0
  9 17  1  0  0  0  0
 10 11  2  0  0  0  0
 10 16  1  0  0  0  0
 11 12  1  0  0  0  0
 11 15  1  0  0  0  0
 12 13  2  0  0  0  0
 12 14  1  0  0  0  0
 22 23  1  0  0  0  0
 22 31  1  0  0  0  0
 23 24  1  0  0  0  0
 23 40  1  0  0  0  0
 23 41  1  0  0  0  0
 24 25  1  0  0  0  0
 24 38  1  0  0  0  0
 24 39  1  0  0  0  0
 25 26  1  0  0  0  0
 25 36  1  0  0  0  0
 25 37  1  0  0  0  0
 26 27  1  0  0  0  0
 26 30  2  0  0  0  0
 27 28  1  0  0  0  0
 28 29  2  0  0  0  0
 28 35  1  0  0  0  0
 29 30  1  0  0  0  0
 29 34  1  0  0  0  0
 30 31  1  0  0  0  0
 31 32  1  0  0  0  0
 31 33  1  0  0  0  0
M  END
>  <MODEL>
       7

$$$$
best_conformers_72.pdb
 OpenBabel01292518153D

 41 44  0  0  0  0  0  0  0  0999 V2000
   -8.6150   -0.5560  -21.2590 O   0  0  0  0  0  0  0  0  0  0  0  0
   -7.8680   -1.3150  -21.8480 C   0  0  0  0  0  0  0  0  0  0  0  0
   -6.7890   -2.0880  -21.0470 C   0  0  0  0  0  0  0  0  0  0  0  0
   -6.1360   -1.2140  -19.9980 C   0  0  0  0  0  0  0  0  0  0  0  0
   -6.5120   -1.2740  -18.6780 C   0  0  0  0  0  0  0  0  0  0  0  0
   -6.0160   -0.5070  -17.6690 N   0  0  0  0  0  0  0  0  0  0  0  0
   -5.0940    0.3700  -17.9970 C   0  0  0  0  0  0  0  0  0  0  0  0
   -4.6050    0.5540  -19.3230 C   0  0  0  0  0  0  0  0  0  0  0  0
   -3.6120    1.5230  -19.6290 C   0  0  0  0  0  0  0  0  0  0  0  0
   -3.1700    1.6840  -20.9160 C   0  0  0  0  0  0  0  0  0  0  0  0
   -3.7070    0.8820  -21.9500 C   0  0  0  0  0  0  0  0  0  0  0  0
   -4.6690   -0.0650  -21.6850 C   0  0  0  0  0  0  0  0  0  0  0  0
   -5.1400   -0.2540  -20.3560 C   0  0  0  0  0  0  0  0  0  0  0  0
   -5.0620   -0.6660  -22.5040 H   0  0  0  0  0  0  0  0  0  0  0  0
   -3.3560    1.0200  -22.9690 H   0  0  0  0  0  0  0  0  0  0  0  0
   -2.4150    2.4300  -21.1530 H   0  0  0  0  0  0  0  0  0  0  0  0
   -3.2130    2.1410  -18.8270 H   0  0  0  0  0  0  0  0  0  0  0  0
   -4.6860    0.9920  -17.1990 H   0  0  0  0  0  0  0  0  0  0  0  0
   -7.2710   -1.9890  -18.3670 H   0  0  0  0  0  0  0  0  0  0  0  0
   -7.3030   -2.9090  -20.5300 H   0  0  0  0  0  0  0  0  0  0  0  0
   -6.0260   -2.5410  -21.6940 H   0  0  0  0  0  0  0  0  0  0  0  0
   -7.9490   -1.4920  -23.2120 N   0  0  0  0  0  0  0  0  0  0  0  0
   -8.5960   -0.4620  -24.0230 C   0  0  0  0  0  0  0  0  0  0  0  0
   -7.9190   -0.2150  -25.3740 C   0  0  0  0  0  0  0  0  0  0  0  0
   -6.3990   -0.0580  -25.2960 C   0  0  0  0  0  0  0  0  0  0  0  0
   -5.6590   -1.3550  -25.0920 C   0  0  0  0  0  0  0  0  0  0  0  0
   -4.0310   -1.5330  -25.6560 S   0  0  0  0  0  0  0  0  0  0  0  0
   -3.9650   -3.1580  -25.1060 C   0  0  0  0  0  0  0  0  0  0  0  0
   -5.1180   -3.5370  -24.4830 C   0  0  0  0  0  0  0  0  0  0  0  0
   -6.1000   -2.5060  -24.4930 C   0  0  0  0  0  0  0  0  0  0  0  0
   -7.4710   -2.6680  -23.9030 C   0  0  0  0  0  0  0  0  0  0  0  0
   -7.4790   -3.5220  -23.2250 H   0  0  0  0  0  0  0  0  0  0  0  0
   -8.1820   -2.9300  -24.6940 H   0  0  0  0  0  0  0  0  0  0  0  0
   -5.2670   -4.5040  -24.0030 H   0  0  0  0  0  0  0  0  0  0  0  0
   -3.0550   -3.7340  -25.1490 H   0  0  0  0  0  0  0  0  0  0  0  0
   -6.1490    0.6060  -24.4570 H   0  0  0  0  0  0  0  0  0  0  0  0
   -6.0230    0.4480  -26.1910 H   0  0  0  0  0  0  0  0  0  0  0  0
   -8.1660   -1.0060  -26.0880 H   0  0  0  0  0  0  0  0  0  0  0  0
   -8.3500    0.6930  -25.8130 H   0  0  0  0  0  0  0  0  0  0  0  0
   -8.5790    0.4650  -23.4480 H   0  0  0  0  0  0  0  0  0  0  0  0
   -9.6500   -0.7160  -24.1810 H   0  0  0  0  0  0  0  0  0  0  0  0
  1  2  2  0  0  0  0
  2  3  1  0  0  0  0
  2 22  1  0  0  0  0
  3  4  1  0  0  0  0
  3 20  1  0  0  0  0
  3 21  1  0  0  0  0
  4  5  2  0  0  0  0
  4 13  1  0  0  0  0
  5  6  1  0  0  0  0
  5 19  1  0  0  0  0
  6  7  2  0  0  0  0
  7  8  1  0  0  0  0
  7 18  1  0  0  0  0
  8  9  2  0  0  0  0
  8 13  1  0  0  0  0
  9 10  1  0  0  0  0
  9 17  1  0  0  0  0
 10 11  2  0  0  0  0
 10 16  1  0  0  0  0
 11 12  1  0  0  0  0
 11 15  1  0  0  0  0
 12 13  2  0  0  0  0
 12 14  1  0  0  0  0
 22 23  1  0  0  0  0
 22 31  1  0  0  0  0
 23 24  1  0  0  0  0
 23 40  1  0  0  0  0
 23 41  1  0  0  0  0
 24 25  1  0  0  0  0
 24 38  1  0  0  0  0
 24 39  1  0  0  0  0
 25 26  1  0  0  0  0
 25 36  1  0  0  0  0
 25 37  1  0  0  0  0
 26 27  1  0  0  0  0
 26 30  2  0  0  0  0
 27 28  1  0  0  0  0
 28 29  2  0  0  0  0
 28 35  1  0  0  0  0
 29 30  1  0  0  0  0
 29 34  1  0  0  0  0
 30 31  1  0  0  0  0
 31 32  1  0  0  0  0
 31 33  1  0  0  0  0
M  END
>  <MODEL>
       8

$$$$
best_conformers_72.pdb
 OpenBabel01292518153D

 41 44  0  0  0  0  0  0  0  0999 V2000
   -8.7050   -3.4110  -21.2430 O   0  0  0  0  0  0  0  0  0  0  0  0
   -8.3530   -2.2460  -21.1450 C   0  0  0  0  0  0  0  0  0  0  0  0
   -6.8490   -1.9720  -21.0760 C   0  0  0  0  0  0  0  0  0  0  0  0
   -6.2250   -1.1160  -20.0050 C   0  0  0  0  0  0  0  0  0  0  0  0
   -6.5790   -1.2420  -18.6840 C   0  0  0  0  0  0  0  0  0  0  0  0
   -6.0640   -0.5070  -17.6660 N   0  0  0  0  0  0  0  0  0  0  0  0
   -5.1380    0.3760  -17.9720 C   0  0  0  0  0  0  0  0  0  0  0  0
   -4.6350    0.5750  -19.2890 C   0  0  0  0  0  0  0  0  0  0  0  0
   -3.6330    1.5390  -19.5870 C   0  0  0  0  0  0  0  0  0  0  0  0
   -3.1510    1.6670  -20.8620 C   0  0  0  0  0  0  0  0  0  0  0  0
   -3.6160    0.8280  -21.8920 C   0  0  0  0  0  0  0  0  0  0  0  0
   -4.5740   -0.1220  -21.6230 C   0  0  0  0  0  0  0  0  0  0  0  0
   -5.1440   -0.2350  -20.3270 C   0  0  0  0  0  0  0  0  0  0  0  0
   -4.8910   -0.7840  -22.4210 H   0  0  0  0  0  0  0  0  0  0  0  0
   -3.2230    0.9300  -22.9020 H   0  0  0  0  0  0  0  0  0  0  0  0
   -2.3910    2.4110  -21.0880 H   0  0  0  0  0  0  0  0  0  0  0  0
   -3.2560    2.1660  -18.7840 H   0  0  0  0  0  0  0  0  0  0  0  0
   -4.7170    0.9680  -17.1570 H   0  0  0  0  0  0  0  0  0  0  0  0
   -7.3340   -1.9700  -18.3840 H   0  0  0  0  0  0  0  0  0  0  0  0
   -6.4270   -2.9770  -21.0070 H   0  0  0  0  0  0  0  0  0  0  0  0
   -6.5800   -1.6120  -22.0700 H   0  0  0  0  0  0  0  0  0  0  0  0
   -9.2690   -1.2160  -21.2820 N   0  0  0  0  0  0  0  0  0  0  0  0
  -10.4940   -1.6000  -21.9970 C   0  0  0  0  0  0  0  0  0  0  0  0
  -10.6700   -0.9240  -23.3510 C   0  0  0  0  0  0  0  0  0  0  0  0
   -9.3810   -0.8680  -24.1790 C   0  0  0  0  0  0  0  0  0  0  0  0
   -8.4310    0.2200  -23.7470 C   0  0  0  0  0  0  0  0  0  0  0  0
   -7.4360    1.0320  -24.9110 S   0  0  0  0  0  0  0  0  0  0  0  0
   -6.7470    2.0450  -23.6970 C   0  0  0  0  0  0  0  0  0  0  0  0
   -7.2580    1.7660  -22.4690 C   0  0  0  0  0  0  0  0  0  0  0  0
   -8.2180    0.7060  -22.4880 C   0  0  0  0  0  0  0  0  0  0  0  0
   -8.9170    0.2010  -21.2510 C   0  0  0  0  0  0  0  0  0  0  0  0
   -9.8390    0.7780  -21.1000 H   0  0  0  0  0  0  0  0  0  0  0  0
   -8.2810    0.4310  -20.3920 H   0  0  0  0  0  0  0  0  0  0  0  0
   -6.9570    2.2860  -21.5640 H   0  0  0  0  0  0  0  0  0  0  0  0
   -6.0030    2.7920  -23.9480 H   0  0  0  0  0  0  0  0  0  0  0  0
   -8.8440   -1.8260  -24.0970 H   0  0  0  0  0  0  0  0  0  0  0  0
   -9.6320   -0.7420  -25.2380 H   0  0  0  0  0  0  0  0  0  0  0  0
  -11.4000   -1.5330  -23.8960 H   0  0  0  0  0  0  0  0  0  0  0  0
  -11.1150    0.0770  -23.2430 H   0  0  0  0  0  0  0  0  0  0  0  0
  -11.3980   -1.4760  -21.4010 H   0  0  0  0  0  0  0  0  0  0  0  0
  -10.3980   -2.6750  -22.1390 H   0  0  0  0  0  0  0  0  0  0  0  0
  1  2  2  0  0  0  0
  2  3  1  0  0  0  0
  2 22  1  0  0  0  0
  3  4  1  0  0  0  0
  3 20  1  0  0  0  0
  3 21  1  0  0  0  0
  4  5  2  0  0  0  0
  4 13  1  0  0  0  0
  5  6  1  0  0  0  0
  5 19  1  0  0  0  0
  6  7  2  0  0  0  0
  7  8  1  0  0  0  0
  7 18  1  0  0  0  0
  8  9  2  0  0  0  0
  8 13  1  0  0  0  0
  9 10  1  0  0  0  0
  9 17  1  0  0  0  0
 10 11  2  0  0  0  0
 10 16  1  0  0  0  0
 11 12  1  0  0  0  0
 11 15  1  0  0  0  0
 12 13  2  0  0  0  0
 12 14  1  0  0  0  0
 22 23  1  0  0  0  0
 22 31  1  0  0  0  0
 23 24  1  0  0  0  0
 23 40  1  0  0  0  0
 23 41  1  0  0  0  0
 24 25  1  0  0  0  0
 24 38  1  0  0  0  0
 24 39  1  0  0  0  0
 25 26  1  0  0  0  0
 25 36  1  0  0  0  0
 25 37  1  0  0  0  0
 26 27  1  0  0  0  0
 26 30  2  0  0  0  0
 27 28  1  0  0  0  0
 28 29  2  0  0  0  0
 28 35  1  0  0  0  0
 29 30  1  0  0  0  0
 29 34  1  0  0  0  0
 30 31  1  0  0  0  0
 31 32  1  0  0  0  0
 31 33  1  0  0  0  0
M  END
>  <MODEL>
       9

$$$$
best_conformers_72.pdb
 OpenBabel01292518153D

 41 44  0  0  0  0  0  0  0  0999 V2000
   -8.3700   -0.3600  -21.4280 O   0  0  0  0  0  0  0  0  0  0  0  0
   -7.8440   -1.3570  -21.8880 C   0  0  0  0  0  0  0  0  0  0  0  0
   -6.7770   -2.1030  -21.0450 C   0  0  0  0  0  0  0  0  0  0  0  0
   -6.1380   -1.2130  -20.0030 C   0  0  0  0  0  0  0  0  0  0  0  0
   -6.5130   -1.2730  -18.6840 C   0  0  0  0  0  0  0  0  0  0  0  0
   -6.0180   -0.5070  -17.6720 N   0  0  0  0  0  0  0  0  0  0  0  0
   -5.0950    0.3690  -17.9970 C   0  0  0  0  0  0  0  0  0  0  0  0
   -4.6070    0.5540  -19.3220 C   0  0  0  0  0  0  0  0  0  0  0  0
   -3.6120    1.5210  -19.6280 C   0  0  0  0  0  0  0  0  0  0  0  0
   -3.1680    1.6840  -20.9140 C   0  0  0  0  0  0  0  0  0  0  0  0
   -3.7040    0.8860  -21.9500 C   0  0  0  0  0  0  0  0  0  0  0  0
   -4.6660   -0.0570  -21.6790 C   0  0  0  0  0  0  0  0  0  0  0  0
   -5.1440   -0.2510  -20.3560 C   0  0  0  0  0  0  0  0  0  0  0  0
   -5.0680   -0.6540  -22.4920 H   0  0  0  0  0  0  0  0  0  0  0  0
   -3.3530    1.0250  -22.9680 H   0  0  0  0  0  0  0  0  0  0  0  0
   -2.4120    2.4280  -21.1510 H   0  0  0  0  0  0  0  0  0  0  0  0
   -3.2130    2.1380  -18.8260 H   0  0  0  0  0  0  0  0  0  0  0  0
   -4.6870    0.9910  -17.1990 H   0  0  0  0  0  0  0  0  0  0  0  0
   -7.2700   -1.9880  -18.3700 H   0  0  0  0  0  0  0  0  0  0  0  0
   -6.0080   -2.5860  -21.6580 H   0  0  0  0  0  0  0  0  0  0  0  0
   -7.3010   -2.9190  -20.5290 H   0  0  0  0  0  0  0  0  0  0  0  0
   -8.2160   -1.8560  -23.1210 N   0  0  0  0  0  0  0  0  0  0  0  0
   -9.5830   -1.6540  -23.5940 C   0  0  0  0  0  0  0  0  0  0  0  0
  -10.2940   -2.9570  -23.9610 C   0  0  0  0  0  0  0  0  0  0  0  0
  -10.0440   -4.0970  -22.9770 C   0  0  0  0  0  0  0  0  0  0  0  0
   -8.6930   -4.7670  -23.1140 C   0  0  0  0  0  0  0  0  0  0  0  0
   -8.4520   -6.4500  -22.7600 S   0  0  0  0  0  0  0  0  0  0  0  0
   -6.7800   -6.3570  -23.1180 C   0  0  0  0  0  0  0  0  0  0  0  0
   -6.4190   -5.1050  -23.5160 C   0  0  0  0  0  0  0  0  0  0  0  0
   -7.5170   -4.1940  -23.5120 C   0  0  0  0  0  0  0  0  0  0  0  0
   -7.3920   -2.7490  -23.9010 C   0  0  0  0  0  0  0  0  0  0  0  0
   -7.6550   -2.6290  -24.9570 H   0  0  0  0  0  0  0  0  0  0  0  0
   -6.3440   -2.4460  -23.8450 H   0  0  0  0  0  0  0  0  0  0  0  0
   -5.4060   -4.8250  -23.7960 H   0  0  0  0  0  0  0  0  0  0  0  0
   -6.1510   -7.2280  -23.0200 H   0  0  0  0  0  0  0  0  0  0  0  0
  -10.8520   -4.8120  -23.1110 H   0  0  0  0  0  0  0  0  0  0  0  0
  -10.1430   -3.7250  -21.9490 H   0  0  0  0  0  0  0  0  0  0  0  0
  -10.0140   -3.2950  -24.9630 H   0  0  0  0  0  0  0  0  0  0  0  0
  -11.3740   -2.7660  -24.0250 H   0  0  0  0  0  0  0  0  0  0  0  0
  -10.1300   -1.1530  -22.7960 H   0  0  0  0  0  0  0  0  0  0  0  0
   -9.5810   -0.9850  -24.4600 H   0  0  0  0  0  0  0  0  0  0  0  0
  1  2  2  0  0  0  0
  2  3  1  0  0  0  0
  2 22  1  0  0  0  0
  3  4  1  0  0  0  0
  3 20  1  0  0  0  0
  3 21  1  0  0  0  0
  4  5  2  0  0  0  0
  4 13  1  0  0  0  0
  5  6  1  0  0  0  0
  5 19  1  0  0  0  0
  6  7  2  0  0  0  0
  7  8  1  0  0  0  0
  7 18  1  0  0  0  0
  8  9  2  0  0  0  0
  8 13  1  0  0  0  0
  9 10  1  0  0  0  0
  9 17  1  0  0  0  0
 10 11  2  0  0  0  0
 10 16  1  0  0  0  0
 11 12  1  0  0  0  0
 11 15  1  0  0  0  0
 12 13  2  0  0  0  0
 12 14  1  0  0  0  0
 22 23  1  0  0  0  0
 22 31  1  0  0  0  0
 23 24  1  0  0  0  0
 23 40  1  0  0  0  0
 23 41  1  0  0  0  0
 24 25  1  0  0  0  0
 24 38  1  0  0  0  0
 24 39  1  0  0  0  0
 25 26  1  0  0  0  0
 25 36  1  0  0  0  0
 25 37  1  0  0  0  0
 26 27  1  0  0  0  0
 26 30  2  0  0  0  0
 27 28  1  0  0  0  0
 28 29  2  0  0  0  0
 28 35  1  0  0  0  0
 29 30  1  0  0  0  0
 29 34  1  0  0  0  0
 30 31  1  0  0  0  0
 31 32  1  0  0  0  0
 31 33  1  0  0  0  0
M  END
>  <MODEL>
      10

$$$$
