best_conformers_20.pdb
 OpenBabel01292518153D

 66 71  0  0  1  0  0  0  0  0999 V2000
   -6.1120   -1.1190  -28.8760 C   0  0  0  0  0  0  0  0  0  0  0  0
   -6.7390   -0.6110  -27.6720 N   0  0  0  0  0  0  0  0  0  0  0  0
   -6.0290   -0.5840  -26.5220 C   0  0  0  0  0  0  0  0  0  0  0  0
   -4.8650   -0.9520  -26.4630 O   0  0  0  0  0  0  0  0  0  0  0  0
   -6.8170   -0.1130  -25.3040 C   0  0  0  0  0  0  0  0  0  0  0  0
   -7.7350   -1.1330  -24.8410 N   0  0  0  0  0  0  0  0  0  0  0  0
   -7.1980   -2.3320  -24.2310 C   0  0  0  0  0  0  0  0  0  0  0  0
   -7.9270   -2.6720  -22.9110 C   0  0  2  0  0  0  0  0  0  0  0  0
   -7.6620   -1.5920  -21.8420 C   0  0  0  0  0  0  0  0  0  0  0  0
   -8.1510   -0.4860  -21.7710 O   0  0  0  0  0  0  0  0  0  0  0  0
   -6.7480   -2.0920  -20.9470 N   0  0  0  0  0  0  0  0  0  0  0  0
   -6.1590   -1.2320  -19.9910 C   0  0  0  0  0  0  0  0  0  0  0  0
   -6.5470   -1.3150  -18.6820 C   0  0  0  0  0  0  0  0  0  0  0  0
   -6.0500   -0.5480  -17.6770 N   0  0  0  0  0  0  0  0  0  0  0  0
   -5.1310    0.3310  -18.0010 C   0  0  0  0  0  0  0  0  0  0  0  0
   -4.6390    0.5220  -19.3250 C   0  0  0  0  0  0  0  0  0  0  0  0
   -3.6480    1.4940  -19.6210 C   0  0  0  0  0  0  0  0  0  0  0  0
   -3.1810    1.6490  -20.8960 C   0  0  0  0  0  0  0  0  0  0  0  0
   -3.6850    0.8420  -21.9430 C   0  0  0  0  0  0  0  0  0  0  0  0
   -4.6520   -0.0970  -21.6860 C   0  0  0  0  0  0  0  0  0  0  0  0
   -5.1600   -0.2810  -20.3650 C   0  0  0  0  0  0  0  0  0  0  0  0
   -5.0360   -0.7090  -22.5020 H   0  0  0  0  0  0  0  0  0  0  0  0
   -3.3050    0.9760  -22.9520 H   0  0  0  0  0  0  0  0  0  0  0  0
   -2.4220    2.3950  -21.1150 H   0  0  0  0  0  0  0  0  0  0  0  0
   -3.2760    2.1110  -18.8050 H   0  0  0  0  0  0  0  0  0  0  0  0
   -4.7180    0.9510  -17.2010 H   0  0  0  0  0  0  0  0  0  0  0  0
   -7.3170   -2.0300  -18.3950 H   0  0  0  0  0  0  0  0  0  0  0  0
   -6.2300   -3.3980  -21.3040 C   0  0  0  0  0  0  0  0  0  0  0  0
   -7.3320   -3.9370  -22.2310 C   0  0  2  0  0  0  0  0  0  0  0  0
   -6.9540   -5.1450  -23.1190 C   0  0  0  0  0  0  0  0  0  0  0  0
   -5.5240   -5.2650  -23.6250 C   0  0  0  0  0  0  0  0  0  0  0  0
   -5.1480   -4.9250  -24.9300 C   0  0  0  0  0  0  0  0  0  0  0  0
   -3.8400   -5.0970  -25.3770 C   0  0  0  0  0  0  0  0  0  0  0  0
   -2.8760   -5.6470  -24.5380 C   0  0  0  0  0  0  0  0  0  0  0  0
   -3.2310   -6.0070  -23.2400 C   0  0  0  0  0  0  0  0  0  0  0  0
   -4.5330   -5.8000  -22.7910 C   0  0  0  0  0  0  0  0  0  0  0  0
   -4.7900   -6.0440  -21.7610 H   0  0  0  0  0  0  0  0  0  0  0  0
   -2.4830   -6.4230  -22.5700 H   0  0  0  0  0  0  0  0  0  0  0  0
   -1.8570   -5.7860  -24.8870 H   0  0  0  0  0  0  0  0  0  0  0  0
   -3.5800   -4.8070  -26.3930 H   0  0  0  0  0  0  0  0  0  0  0  0
   -5.8900   -4.5410  -25.6280 H   0  0  0  0  0  0  0  0  0  0  0  0
   -7.1690   -6.0460  -22.5320 H   0  0  0  0  0  0  0  0  0  0  0  0
   -7.6570   -5.1790  -23.9600 H   0  0  0  0  0  0  0  0  0  0  0  0
   -8.1300   -4.2800  -21.5710 H   0  0  0  0  0  0  0  0  0  0  0  0
   -6.0850   -4.0040  -20.4070 H   0  0  0  0  0  0  0  0  0  0  0  0
   -5.2530   -3.3120  -21.8060 H   0  0  0  0  0  0  0  0  0  0  0  0
   -9.4230   -2.6660  -23.1670 C   0  0  0  0  0  0  0  0  0  0  0  0
  -10.3120   -3.2800  -22.2710 C   0  0  0  0  0  0  0  0  0  0  0  0
  -11.6730   -3.0070  -22.3390 C   0  0  0  0  0  0  0  0  0  0  0  0
  -12.7460   -3.4760  -21.0440 Cl  0  0  0  0  0  0  0  0  0  0  0  0
  -12.2040   -2.2820  -23.4050 C   0  0  0  0  0  0  0  0  0  0  0  0
  -11.3390   -1.7250  -24.3210 C   0  0  0  0  0  0  0  0  0  0  0  0
   -9.9550   -1.8190  -24.1550 C   0  0  0  0  0  0  0  0  0  0  0  0
   -9.0690   -0.9070  -24.9560 C   0  0  0  0  0  0  0  0  0  0  0  0
   -9.5020    0.0180  -25.6350 O   0  0  0  0  0  0  0  0  0  0  0  0
  -11.7480   -1.1620  -25.1490 H   0  0  0  0  0  0  0  0  0  0  0  0
  -13.2740   -2.1060  -23.4750 H   0  0  0  0  0  0  0  0  0  0  0  0
   -9.9620   -3.9560  -21.4990 H   0  0  0  0  0  0  0  0  0  0  0  0
   -6.1270   -2.1930  -24.0660 H   0  0  0  0  0  0  0  0  0  0  0  0
   -7.2960   -3.1870  -24.9090 H   0  0  0  0  0  0  0  0  0  0  0  0
   -7.4130    0.7700  -25.5530 H   0  0  0  0  0  0  0  0  0  0  0  0
   -6.1130    0.1300  -24.5040 H   0  0  0  0  0  0  0  0  0  0  0  0
   -7.7150   -0.3590  -27.6580 H   0  0  0  0  0  0  0  0  0  0  0  0
   -5.7800   -2.1520  -28.7260 H   0  0  0  0  0  0  0  0  0  0  0  0
   -5.2300   -0.5170  -29.1190 H   0  0  0  0  0  0  0  0  0  0  0  0
   -6.8210   -1.0810  -29.7060 H   0  0  0  0  0  0  0  0  0  0  0  0
  1  2  1  0  0  0  0
  1 64  1  0  0  0  0
  1 65  1  0  0  0  0
  1 66  1  0  0  0  0
  2  3  1  0  0  0  0
  2 63  1  0  0  0  0
  3  4  2  0  0  0  0
  3  5  1  0  0  0  0
  5  6  1  0  0  0  0
  5 61  1  0  0  0  0
  5 62  1  0  0  0  0
  6  7  1  0  0  0  0
  6 54  1  0  0  0  0
  7  8  1  0  0  0  0
  7 59  1  0  0  0  0
  7 60  1  0  0  0  0
  8  9  1  1  0  0  0
  8 29  1  0  0  0  0
  8 47  1  0  0  0  0
  9 10  2  0  0  0  0
  9 11  1  0  0  0  0
 11 12  1  0  0  0  0
 11 28  1  0  0  0  0
 12 13  2  0  0  0  0
 12 21  1  0  0  0  0
 13 14  1  0  0  0  0
 13 27  1  0  0  0  0
 14 15  2  0  0  0  0
 15 16  1  0  0  0  0
 15 26  1  0  0  0  0
 16 17  2  0  0  0  0
 16 21  1  0  0  0  0
 17 18  1  0  0  0  0
 17 25  1  0  0  0  0
 18 19  2  0  0  0  0
 18 24  1  0  0  0  0
 19 20  1  0  0  0  0
 19 23  1  0  0  0  0
 20 21  2  0  0  0  0
 20 22  1  0  0  0  0
 28 29  1  0  0  0  0
 28 45  1  0  0  0  0
 28 46  1  0  0  0  0
 29 30  1  0  0  0  0
 29 44  1  1  0  0  0
 30 31  1  0  0  0  0
 30 42  1  0  0  0  0
 30 43  1  0  0  0  0
 31 32  2  0  0  0  0
 31 36  1  0  0  0  0
 32 33  1  0  0  0  0
 32 41  1  0  0  0  0
 33 34  2  0  0  0  0
 33 40  1  0  0  0  0
 34 35  1  0  0  0  0
 34 39  1  0  0  0  0
 35 36  2  0  0  0  0
 35 38  1  0  0  0  0
 36 37  1  0  0  0  0
 47 48  2  0  0  0  0
 47 53  1  0  0  0  0
 48 49  1  0  0  0  0
 48 58  1  0  0  0  0
 49 50  1  0  0  0  0
 49 51  2  0  0  0  0
 51 52  1  0  0  0  0
 51 57  1  0  0  0  0
 52 53  2  0  0  0  0
 52 56  1  0  0  0  0
 53 54  1  0  0  0  0
 54 55  2  0  0  0  0
M  END
>  <MODEL>
       1

$$$$
