best_conformers_81.pdb
 OpenBabel01292518153D

 36 38  0  0  0  0  0  0  0  0999 V2000
   -5.0670   -3.7850  -20.5860 O   0  0  0  0  0  0  0  0  0  0  0  0
   -5.7710   -3.2740  -21.4370 C   0  0  0  0  0  0  0  0  0  0  0  0
   -6.7370   -2.1310  -21.0370 C   0  0  0  0  0  0  0  0  0  0  0  0
   -6.1330   -1.2120  -20.0000 C   0  0  0  0  0  0  0  0  0  0  0  0
   -6.5050   -1.2820  -18.6830 C   0  0  0  0  0  0  0  0  0  0  0  0
   -6.0140   -0.5110  -17.6720 N   0  0  0  0  0  0  0  0  0  0  0  0
   -5.0960    0.3700  -17.9980 C   0  0  0  0  0  0  0  0  0  0  0  0
   -4.6050    0.5540  -19.3200 C   0  0  0  0  0  0  0  0  0  0  0  0
   -3.6080    1.5150  -19.6260 C   0  0  0  0  0  0  0  0  0  0  0  0
   -3.1530    1.6670  -20.9090 C   0  0  0  0  0  0  0  0  0  0  0  0
   -3.6800    0.8590  -21.9430 C   0  0  0  0  0  0  0  0  0  0  0  0
   -4.6450   -0.0800  -21.6750 C   0  0  0  0  0  0  0  0  0  0  0  0
   -5.1360   -0.2570  -20.3540 C   0  0  0  0  0  0  0  0  0  0  0  0
   -5.0330   -0.6930  -22.4840 H   0  0  0  0  0  0  0  0  0  0  0  0
   -3.3180    0.9890  -22.9580 H   0  0  0  0  0  0  0  0  0  0  0  0
   -2.3930    2.4090  -21.1450 H   0  0  0  0  0  0  0  0  0  0  0  0
   -3.2140    2.1350  -18.8240 H   0  0  0  0  0  0  0  0  0  0  0  0
   -4.6890    0.9910  -17.1970 H   0  0  0  0  0  0  0  0  0  0  0  0
   -7.2610   -1.9980  -18.3670 H   0  0  0  0  0  0  0  0  0  0  0  0
   -7.0880   -1.5520  -21.8980 H   0  0  0  0  0  0  0  0  0  0  0  0
   -7.6310   -2.6020  -20.6030 H   0  0  0  0  0  0  0  0  0  0  0  0
   -5.7080   -3.7110  -22.7500 N   0  0  0  0  0  0  0  0  0  0  0  0
   -5.1140   -5.0270  -22.9730 C   0  0  0  0  0  0  0  0  0  0  0  0
   -6.0500   -6.1970  -22.8170 C   0  0  0  0  0  0  0  0  0  0  0  0
   -7.3820   -6.2120  -22.9380 C   0  0  0  0  0  0  0  0  0  0  0  0
   -8.3210   -5.1100  -23.2400 C   0  0  0  0  0  0  0  0  0  0  0  0
   -8.0440   -3.8520  -23.5910 C   0  0  0  0  0  0  0  0  0  0  0  0
   -6.6560   -3.3020  -23.7740 C   0  0  0  0  0  0  0  0  0  0  0  0
   -6.6640   -2.2120  -23.8610 H   0  0  0  0  0  0  0  0  0  0  0  0
   -6.2440   -3.6690  -24.7210 H   0  0  0  0  0  0  0  0  0  0  0  0
   -8.8710   -3.1650  -23.7690 H   0  0  0  0  0  0  0  0  0  0  0  0
   -9.3680   -5.3960  -23.1830 H   0  0  0  0  0  0  0  0  0  0  0  0
   -7.8740   -7.1740  -22.8030 H   0  0  0  0  0  0  0  0  0  0  0  0
   -5.5530   -7.1420  -22.5830 H   0  0  0  0  0  0  0  0  0  0  0  0
   -4.7170   -5.0260  -23.9950 H   0  0  0  0  0  0  0  0  0  0  0  0
   -4.2560   -5.1450  -22.3070 H   0  0  0  0  0  0  0  0  0  0  0  0
  1  2  2  0  0  0  0
  2  3  1  0  0  0  0
  2 22  1  0  0  0  0
  3  4  1  0  0  0  0
  3 20  1  0  0  0  0
  3 21  1  0  0  0  0
  4  5  2  0  0  0  0
  4 13  1  0  0  0  0
  5  6  1  0  0  0  0
  5 19  1  0  0  0  0
  6  7  2  0  0  0  0
  7  8  1  0  0  0  0
  7 18  1  0  0  0  0
  8  9  2  0  0  0  0
  8 13  1  0  0  0  0
  9 10  1  0  0  0  0
  9 17  1  0  0  0  0
 10 11  2  0  0  0  0
 10 16  1  0  0  0  0
 11 12  1  0  0  0  0
 11 15  1  0  0  0  0
 12 13  2  0  0  0  0
 12 14  1  0  0  0  0
 22 23  1  0  0  0  0
 22 28  1  0  0  0  0
 23 24  1  0  0  0  0
 23 35  1  0  0  0  0
 23 36  1  0  0  0  0
 24 25  2  0  0  0  0
 24 34  1  0  0  0  0
 25 26  1  0  0  0  0
 25 33  1  0  0  0  0
 26 27  2  0  0  0  0
 26 32  1  0  0  0  0
 27 28  1  0  0  0  0
 27 31  1  0  0  0  0
 28 29  1  0  0  0  0
 28 30  1  0  0  0  0
M  END
>  <MODEL>
       1

$$$$
best_conformers_81.pdb
 OpenBabel01292518153D

 36 38  0  0  0  0  0  0  0  0999 V2000
   -5.0690   -3.7870  -20.5840 O   0  0  0  0  0  0  0  0  0  0  0  0
   -5.7690   -3.2740  -21.4360 C   0  0  0  0  0  0  0  0  0  0  0  0
   -6.7370   -2.1310  -21.0370 C   0  0  0  0  0  0  0  0  0  0  0  0
   -6.1330   -1.2120  -20.0000 C   0  0  0  0  0  0  0  0  0  0  0  0
   -6.5050   -1.2820  -18.6830 C   0  0  0  0  0  0  0  0  0  0  0  0
   -6.0140   -0.5110  -17.6720 N   0  0  0  0  0  0  0  0  0  0  0  0
   -5.0960    0.3700  -17.9980 C   0  0  0  0  0  0  0  0  0  0  0  0
   -4.6050    0.5540  -19.3200 C   0  0  0  0  0  0  0  0  0  0  0  0
   -3.6080    1.5150  -19.6260 C   0  0  0  0  0  0  0  0  0  0  0  0
   -3.1530    1.6670  -20.9090 C   0  0  0  0  0  0  0  0  0  0  0  0
   -3.6790    0.8580  -21.9430 C   0  0  0  0  0  0  0  0  0  0  0  0
   -4.6450   -0.0800  -21.6750 C   0  0  0  0  0  0  0  0  0  0  0  0
   -5.1360   -0.2570  -20.3540 C   0  0  0  0  0  0  0  0  0  0  0  0
   -5.0330   -0.6930  -22.4840 H   0  0  0  0  0  0  0  0  0  0  0  0
   -3.3180    0.9890  -22.9580 H   0  0  0  0  0  0  0  0  0  0  0  0
   -2.3930    2.4090  -21.1450 H   0  0  0  0  0  0  0  0  0  0  0  0
   -3.2140    2.1350  -18.8240 H   0  0  0  0  0  0  0  0  0  0  0  0
   -4.6890    0.9910  -17.1970 H   0  0  0  0  0  0  0  0  0  0  0  0
   -7.2610   -1.9980  -18.3660 H   0  0  0  0  0  0  0  0  0  0  0  0
   -7.6300   -2.6030  -20.6030 H   0  0  0  0  0  0  0  0  0  0  0  0
   -7.0880   -1.5530  -21.8990 H   0  0  0  0  0  0  0  0  0  0  0  0
   -5.7020   -3.7080  -22.7510 N   0  0  0  0  0  0  0  0  0  0  0  0
   -6.6500   -3.3010  -23.7750 C   0  0  0  0  0  0  0  0  0  0  0  0
   -8.0370   -3.8560  -23.5940 C   0  0  0  0  0  0  0  0  0  0  0  0
   -8.3090   -5.1160  -23.2460 C   0  0  0  0  0  0  0  0  0  0  0  0
   -7.3660   -6.2150  -22.9470 C   0  0  0  0  0  0  0  0  0  0  0  0
   -6.0340   -6.1950  -22.8240 C   0  0  0  0  0  0  0  0  0  0  0  0
   -5.1030   -5.0210  -22.9750 C   0  0  0  0  0  0  0  0  0  0  0  0
   -4.2460   -5.1380  -22.3070 H   0  0  0  0  0  0  0  0  0  0  0  0
   -4.7030   -5.0160  -23.9960 H   0  0  0  0  0  0  0  0  0  0  0  0
   -5.5330   -7.1380  -22.5920 H   0  0  0  0  0  0  0  0  0  0  0  0
   -7.8540   -7.1790  -22.8150 H   0  0  0  0  0  0  0  0  0  0  0  0
   -9.3550   -5.4060  -23.1900 H   0  0  0  0  0  0  0  0  0  0  0  0
   -8.8660   -3.1720  -23.7710 H   0  0  0  0  0  0  0  0  0  0  0  0
   -6.2360   -3.6640  -24.7220 H   0  0  0  0  0  0  0  0  0  0  0  0
   -6.6620   -2.2100  -23.8600 H   0  0  0  0  0  0  0  0  0  0  0  0
  1  2  2  0  0  0  0
  2  3  1  0  0  0  0
  2 22  1  0  0  0  0
  3  4  1  0  0  0  0
  3 20  1  0  0  0  0
  3 21  1  0  0  0  0
  4  5  2  0  0  0  0
  4 13  1  0  0  0  0
  5  6  1  0  0  0  0
  5 19  1  0  0  0  0
  6  7  2  0  0  0  0
  7  8  1  0  0  0  0
  7 18  1  0  0  0  0
  8  9  2  0  0  0  0
  8 13  1  0  0  0  0
  9 10  1  0  0  0  0
  9 17  1  0  0  0  0
 10 11  2  0  0  0  0
 10 16  1  0  0  0  0
 11 12  1  0  0  0  0
 11 15  1  0  0  0  0
 12 13  2  0  0  0  0
 12 14  1  0  0  0  0
 22 23  1  0  0  0  0
 22 28  1  0  0  0  0
 23 24  1  0  0  0  0
 23 35  1  0  0  0  0
 23 36  1  0  0  0  0
 24 25  2  0  0  0  0
 24 34  1  0  0  0  0
 25 26  1  0  0  0  0
 25 33  1  0  0  0  0
 26 27  2  0  0  0  0
 26 32  1  0  0  0  0
 27 28  1  0  0  0  0
 27 31  1  0  0  0  0
 28 29  1  0  0  0  0
 28 30  1  0  0  0  0
M  END
>  <MODEL>
       2

$$$$
best_conformers_81.pdb
 OpenBabel01292518153D

 36 38  0  0  0  0  0  0  0  0999 V2000
   -4.7750   -3.5000  -20.8330 O   0  0  0  0  0  0  0  0  0  0  0  0
   -5.8120   -3.3020  -21.4330 C   0  0  0  0  0  0  0  0  0  0  0  0
   -6.7560   -2.1440  -21.0270 C   0  0  0  0  0  0  0  0  0  0  0  0
   -6.1370   -1.2170  -20.0040 C   0  0  0  0  0  0  0  0  0  0  0  0
   -6.5070   -1.2830  -18.6860 C   0  0  0  0  0  0  0  0  0  0  0  0
   -6.0140   -0.5140  -17.6770 N   0  0  0  0  0  0  0  0  0  0  0  0
   -5.0970    0.3680  -18.0010 C   0  0  0  0  0  0  0  0  0  0  0  0
   -4.6050    0.5490  -19.3210 C   0  0  0  0  0  0  0  0  0  0  0  0
   -3.6080    1.5130  -19.6260 C   0  0  0  0  0  0  0  0  0  0  0  0
   -3.1500    1.6640  -20.9080 C   0  0  0  0  0  0  0  0  0  0  0  0
   -3.6740    0.8540  -21.9420 C   0  0  0  0  0  0  0  0  0  0  0  0
   -4.6400   -0.0860  -21.6730 C   0  0  0  0  0  0  0  0  0  0  0  0
   -5.1350   -0.2630  -20.3550 C   0  0  0  0  0  0  0  0  0  0  0  0
   -5.0310   -0.7010  -22.4780 H   0  0  0  0  0  0  0  0  0  0  0  0
   -3.3090    0.9820  -22.9560 H   0  0  0  0  0  0  0  0  0  0  0  0
   -2.3890    2.4060  -21.1430 H   0  0  0  0  0  0  0  0  0  0  0  0
   -3.2150    2.1340  -18.8240 H   0  0  0  0  0  0  0  0  0  0  0  0
   -4.6910    0.9890  -17.1980 H   0  0  0  0  0  0  0  0  0  0  0  0
   -7.2600   -1.9980  -18.3650 H   0  0  0  0  0  0  0  0  0  0  0  0
   -7.6820   -2.5650  -20.6090 H   0  0  0  0  0  0  0  0  0  0  0  0
   -7.0580   -1.5750  -21.9190 H   0  0  0  0  0  0  0  0  0  0  0  0
   -6.1720   -4.0890  -22.5180 N   0  0  0  0  0  0  0  0  0  0  0  0
   -5.3170   -5.2270  -22.8300 C   0  0  0  0  0  0  0  0  0  0  0  0
   -5.5370   -6.4740  -22.0300 C   0  0  0  0  0  0  0  0  0  0  0  0
   -6.6750   -6.8710  -21.4640 C   0  0  0  0  0  0  0  0  0  0  0  0
   -8.0020   -6.2420  -21.4610 C   0  0  0  0  0  0  0  0  0  0  0  0
   -8.3920   -5.1120  -22.0570 C   0  0  0  0  0  0  0  0  0  0  0  0
   -7.5510   -4.2510  -22.9500 C   0  0  0  0  0  0  0  0  0  0  0  0
   -8.0150   -3.2710  -23.0830 H   0  0  0  0  0  0  0  0  0  0  0  0
   -7.5120   -4.7150  -23.9400 H   0  0  0  0  0  0  0  0  0  0  0  0
   -9.3950   -4.7380  -21.8640 H   0  0  0  0  0  0  0  0  0  0  0  0
   -8.7210   -6.7660  -20.8320 H   0  0  0  0  0  0  0  0  0  0  0  0
   -6.6500   -7.8010  -20.9240 H   0  0  0  0  0  0  0  0  0  0  0  0
   -4.6540   -7.1100  -21.9180 H   0  0  0  0  0  0  0  0  0  0  0  0
   -4.2790   -4.9430  -22.7100 H   0  0  0  0  0  0  0  0  0  0  0  0
   -5.4610   -5.4500  -23.8930 H   0  0  0  0  0  0  0  0  0  0  0  0
  1  2  2  0  0  0  0
  2  3  1  0  0  0  0
  2 22  1  0  0  0  0
  3  4  1  0  0  0  0
  3 20  1  0  0  0  0
  3 21  1  0  0  0  0
  4  5  2  0  0  0  0
  4 13  1  0  0  0  0
  5  6  1  0  0  0  0
  5 19  1  0  0  0  0
  6  7  2  0  0  0  0
  7  8  1  0  0  0  0
  7 18  1  0  0  0  0
  8  9  2  0  0  0  0
  8 13  1  0  0  0  0
  9 10  1  0  0  0  0
  9 17  1  0  0  0  0
 10 11  2  0  0  0  0
 10 16  1  0  0  0  0
 11 12  1  0  0  0  0
 11 15  1  0  0  0  0
 12 13  2  0  0  0  0
 12 14  1  0  0  0  0
 22 23  1  0  0  0  0
 22 28  1  0  0  0  0
 23 24  1  0  0  0  0
 23 35  1  0  0  0  0
 23 36  1  0  0  0  0
 24 25  2  0  0  0  0
 24 34  1  0  0  0  0
 25 26  1  0  0  0  0
 25 33  1  0  0  0  0
 26 27  2  0  0  0  0
 26 32  1  0  0  0  0
 27 28  1  0  0  0  0
 27 31  1  0  0  0  0
 28 29  1  0  0  0  0
 28 30  1  0  0  0  0
M  END
>  <MODEL>
       3

$$$$
best_conformers_81.pdb
 OpenBabel01292518153D

 36 38  0  0  0  0  0  0  0  0999 V2000
   -4.7740   -3.4990  -20.8370 O   0  0  0  0  0  0  0  0  0  0  0  0
   -5.8170   -3.3050  -21.4300 C   0  0  0  0  0  0  0  0  0  0  0  0
   -6.7580   -2.1430  -21.0270 C   0  0  0  0  0  0  0  0  0  0  0  0
   -6.1370   -1.2170  -20.0040 C   0  0  0  0  0  0  0  0  0  0  0  0
   -6.5070   -1.2830  -18.6870 C   0  0  0  0  0  0  0  0  0  0  0  0
   -6.0140   -0.5140  -17.6770 N   0  0  0  0  0  0  0  0  0  0  0  0
   -5.0970    0.3680  -18.0010 C   0  0  0  0  0  0  0  0  0  0  0  0
   -4.6050    0.5490  -19.3210 C   0  0  0  0  0  0  0  0  0  0  0  0
   -3.6080    1.5130  -19.6260 C   0  0  0  0  0  0  0  0  0  0  0  0
   -3.1500    1.6640  -20.9080 C   0  0  0  0  0  0  0  0  0  0  0  0
   -3.6730    0.8540  -21.9420 C   0  0  0  0  0  0  0  0  0  0  0  0
   -4.6400   -0.0870  -21.6730 C   0  0  0  0  0  0  0  0  0  0  0  0
   -5.1350   -0.2640  -20.3550 C   0  0  0  0  0  0  0  0  0  0  0  0
   -5.0300   -0.7020  -22.4780 H   0  0  0  0  0  0  0  0  0  0  0  0
   -3.3090    0.9820  -22.9560 H   0  0  0  0  0  0  0  0  0  0  0  0
   -2.3890    2.4050  -21.1430 H   0  0  0  0  0  0  0  0  0  0  0  0
   -3.2160    2.1340  -18.8240 H   0  0  0  0  0  0  0  0  0  0  0  0
   -4.6910    0.9890  -17.1980 H   0  0  0  0  0  0  0  0  0  0  0  0
   -7.2600   -1.9970  -18.3650 H   0  0  0  0  0  0  0  0  0  0  0  0
   -7.6860   -2.5610  -20.6100 H   0  0  0  0  0  0  0  0  0  0  0  0
   -7.0560   -1.5760  -21.9200 H   0  0  0  0  0  0  0  0  0  0  0  0
   -6.1850   -4.1030  -22.5040 N   0  0  0  0  0  0  0  0  0  0  0  0
   -7.5650   -4.2580  -22.9350 C   0  0  0  0  0  0  0  0  0  0  0  0
   -8.4150   -5.1090  -22.0410 C   0  0  0  0  0  0  0  0  0  0  0  0
   -8.0350   -6.2380  -21.4380 C   0  0  0  0  0  0  0  0  0  0  0  0
   -6.7090   -6.8680  -21.4170 C   0  0  0  0  0  0  0  0  0  0  0  0
   -5.5660   -6.4850  -21.9820 C   0  0  0  0  0  0  0  0  0  0  0  0
   -5.3360   -5.2500  -22.8010 C   0  0  0  0  0  0  0  0  0  0  0  0
   -4.2950   -4.9650  -22.6950 H   0  0  0  0  0  0  0  0  0  0  0  0
   -5.4900   -5.4900  -23.8590 H   0  0  0  0  0  0  0  0  0  0  0  0
   -4.6900   -7.1280  -21.8590 H   0  0  0  0  0  0  0  0  0  0  0  0
   -6.6960   -7.7840  -20.8520 H   0  0  0  0  0  0  0  0  0  0  0  0
   -8.7550   -6.7420  -20.7950 H   0  0  0  0  0  0  0  0  0  0  0  0
   -9.4120   -4.7210  -21.8450 H   0  0  0  0  0  0  0  0  0  0  0  0
   -7.5290   -4.7310  -23.9200 H   0  0  0  0  0  0  0  0  0  0  0  0
   -8.0220   -3.2750  -23.0760 H   0  0  0  0  0  0  0  0  0  0  0  0
  1  2  2  0  0  0  0
  2  3  1  0  0  0  0
  2 22  1  0  0  0  0
  3  4  1  0  0  0  0
  3 20  1  0  0  0  0
  3 21  1  0  0  0  0
  4  5  2  0  0  0  0
  4 13  1  0  0  0  0
  5  6  1  0  0  0  0
  5 19  1  0  0  0  0
  6  7  2  0  0  0  0
  7  8  1  0  0  0  0
  7 18  1  0  0  0  0
  8  9  2  0  0  0  0
  8 13  1  0  0  0  0
  9 10  1  0  0  0  0
  9 17  1  0  0  0  0
 10 11  2  0  0  0  0
 10 16  1  0  0  0  0
 11 12  1  0  0  0  0
 11 15  1  0  0  0  0
 12 13  2  0  0  0  0
 12 14  1  0  0  0  0
 22 23  1  0  0  0  0
 22 28  1  0  0  0  0
 23 24  1  0  0  0  0
 23 35  1  0  0  0  0
 23 36  1  0  0  0  0
 24 25  2  0  0  0  0
 24 34  1  0  0  0  0
 25 26  1  0  0  0  0
 25 33  1  0  0  0  0
 26 27  2  0  0  0  0
 26 32  1  0  0  0  0
 27 28  1  0  0  0  0
 27 31  1  0  0  0  0
 28 29  1  0  0  0  0
 28 30  1  0  0  0  0
M  END
>  <MODEL>
       4

$$$$
best_conformers_81.pdb
 OpenBabel01292518153D

 36 38  0  0  0  0  0  0  0  0999 V2000
   -8.5250   -0.5010  -21.3740 O   0  0  0  0  0  0  0  0  0  0  0  0
   -7.8120   -1.3290  -21.9070 C   0  0  0  0  0  0  0  0  0  0  0  0
   -6.7760   -2.0930  -21.0470 C   0  0  0  0  0  0  0  0  0  0  0  0
   -6.1380   -1.2070  -20.0010 C   0  0  0  0  0  0  0  0  0  0  0  0
   -6.5130   -1.2740  -18.6850 C   0  0  0  0  0  0  0  0  0  0  0  0
   -6.0180   -0.5070  -17.6730 N   0  0  0  0  0  0  0  0  0  0  0  0
   -5.0950    0.3690  -17.9980 C   0  0  0  0  0  0  0  0  0  0  0  0
   -4.6060    0.5540  -19.3200 C   0  0  0  0  0  0  0  0  0  0  0  0
   -3.6130    1.5200  -19.6270 C   0  0  0  0  0  0  0  0  0  0  0  0
   -3.1690    1.6820  -20.9120 C   0  0  0  0  0  0  0  0  0  0  0  0
   -3.7040    0.8830  -21.9490 C   0  0  0  0  0  0  0  0  0  0  0  0
   -4.6660   -0.0590  -21.6800 C   0  0  0  0  0  0  0  0  0  0  0  0
   -5.1410   -0.2520  -20.3560 C   0  0  0  0  0  0  0  0  0  0  0  0
   -5.0720   -0.6560  -22.4930 H   0  0  0  0  0  0  0  0  0  0  0  0
   -3.3520    1.0210  -22.9660 H   0  0  0  0  0  0  0  0  0  0  0  0
   -2.4120    2.4270  -21.1500 H   0  0  0  0  0  0  0  0  0  0  0  0
   -3.2150    2.1370  -18.8250 H   0  0  0  0  0  0  0  0  0  0  0  0
   -4.6880    0.9900  -17.1970 H   0  0  0  0  0  0  0  0  0  0  0  0
   -7.2700   -1.9890  -18.3690 H   0  0  0  0  0  0  0  0  0  0  0  0
   -6.0060   -2.5860  -21.6500 H   0  0  0  0  0  0  0  0  0  0  0  0
   -7.3230   -2.8950  -20.5320 H   0  0  0  0  0  0  0  0  0  0  0  0
   -7.9260   -1.5860  -23.2660 N   0  0  0  0  0  0  0  0  0  0  0  0
   -7.2740   -2.7110  -23.9170 C   0  0  0  0  0  0  0  0  0  0  0  0
   -7.8270   -4.0590  -23.5400 C   0  0  0  0  0  0  0  0  0  0  0  0
   -9.1280   -4.3400  -23.4280 C   0  0  0  0  0  0  0  0  0  0  0  0
  -10.2850   -3.4390  -23.6120 C   0  0  0  0  0  0  0  0  0  0  0  0
  -10.3220   -2.1150  -23.8070 C   0  0  0  0  0  0  0  0  0  0  0  0
   -9.1640   -1.1540  -23.9110 C   0  0  0  0  0  0  0  0  0  0  0  0
   -9.4460   -0.1770  -23.5110 H   0  0  0  0  0  0  0  0  0  0  0  0
   -8.9320   -1.0010  -24.9710 H   0  0  0  0  0  0  0  0  0  0  0  0
  -11.3050   -1.6500  -23.9100 H   0  0  0  0  0  0  0  0  0  0  0  0
  -11.2430   -3.9570  -23.5800 H   0  0  0  0  0  0  0  0  0  0  0  0
   -9.4000   -5.3650  -23.1900 H   0  0  0  0  0  0  0  0  0  0  0  0
   -7.1030   -4.8530  -23.3610 H   0  0  0  0  0  0  0  0  0  0  0  0
   -7.4140   -2.5520  -24.9920 H   0  0  0  0  0  0  0  0  0  0  0  0
   -6.1930   -2.6620  -23.7520 H   0  0  0  0  0  0  0  0  0  0  0  0
  1  2  2  0  0  0  0
  2  3  1  0  0  0  0
  2 22  1  0  0  0  0
  3  4  1  0  0  0  0
  3 20  1  0  0  0  0
  3 21  1  0  0  0  0
  4  5  2  0  0  0  0
  4 13  1  0  0  0  0
  5  6  1  0  0  0  0
  5 19  1  0  0  0  0
  6  7  2  0  0  0  0
  7  8  1  0  0  0  0
  7 18  1  0  0  0  0
  8  9  2  0  0  0  0
  8 13  1  0  0  0  0
  9 10  1  0  0  0  0
  9 17  1  0  0  0  0
 10 11  2  0  0  0  0
 10 16  1  0  0  0  0
 11 12  1  0  0  0  0
 11 15  1  0  0  0  0
 12 13  2  0  0  0  0
 12 14  1  0  0  0  0
 22 23  1  0  0  0  0
 22 28  1  0  0  0  0
 23 24  1  0  0  0  0
 23 35  1  0  0  0  0
 23 36  1  0  0  0  0
 24 25  2  0  0  0  0
 24 34  1  0  0  0  0
 25 26  1  0  0  0  0
 25 33  1  0  0  0  0
 26 27  2  0  0  0  0
 26 32  1  0  0  0  0
 27 28  1  0  0  0  0
 27 31  1  0  0  0  0
 28 29  1  0  0  0  0
 28 30  1  0  0  0  0
M  END
>  <MODEL>
       5

$$$$
best_conformers_81.pdb
 OpenBabel01292518153D

 36 38  0  0  0  0  0  0  0  0999 V2000
   -8.5250   -0.5010  -21.3740 O   0  0  0  0  0  0  0  0  0  0  0  0
   -7.8120   -1.3290  -21.9070 C   0  0  0  0  0  0  0  0  0  0  0  0
   -6.7760   -2.0930  -21.0470 C   0  0  0  0  0  0  0  0  0  0  0  0
   -6.1380   -1.2070  -20.0010 C   0  0  0  0  0  0  0  0  0  0  0  0
   -6.5130   -1.2740  -18.6850 C   0  0  0  0  0  0  0  0  0  0  0  0
   -6.0180   -0.5070  -17.6730 N   0  0  0  0  0  0  0  0  0  0  0  0
   -5.0950    0.3690  -17.9980 C   0  0  0  0  0  0  0  0  0  0  0  0
   -4.6060    0.5540  -19.3200 C   0  0  0  0  0  0  0  0  0  0  0  0
   -3.6130    1.5200  -19.6270 C   0  0  0  0  0  0  0  0  0  0  0  0
   -3.1690    1.6820  -20.9120 C   0  0  0  0  0  0  0  0  0  0  0  0
   -3.7040    0.8830  -21.9490 C   0  0  0  0  0  0  0  0  0  0  0  0
   -4.6660   -0.0590  -21.6800 C   0  0  0  0  0  0  0  0  0  0  0  0
   -5.1410   -0.2520  -20.3560 C   0  0  0  0  0  0  0  0  0  0  0  0
   -5.0720   -0.6560  -22.4930 H   0  0  0  0  0  0  0  0  0  0  0  0
   -3.3520    1.0210  -22.9660 H   0  0  0  0  0  0  0  0  0  0  0  0
   -2.4120    2.4270  -21.1500 H   0  0  0  0  0  0  0  0  0  0  0  0
   -3.2150    2.1370  -18.8250 H   0  0  0  0  0  0  0  0  0  0  0  0
   -4.6880    0.9900  -17.1970 H   0  0  0  0  0  0  0  0  0  0  0  0
   -7.2700   -1.9890  -18.3690 H   0  0  0  0  0  0  0  0  0  0  0  0
   -6.0060   -2.5860  -21.6500 H   0  0  0  0  0  0  0  0  0  0  0  0
   -7.3230   -2.8950  -20.5320 H   0  0  0  0  0  0  0  0  0  0  0  0
   -7.9260   -1.5860  -23.2660 N   0  0  0  0  0  0  0  0  0  0  0  0
   -9.1640   -1.1540  -23.9110 C   0  0  0  0  0  0  0  0  0  0  0  0
  -10.3220   -2.1150  -23.8080 C   0  0  0  0  0  0  0  0  0  0  0  0
  -10.2850   -3.4390  -23.6130 C   0  0  0  0  0  0  0  0  0  0  0  0
   -9.1280   -4.3400  -23.4280 C   0  0  0  0  0  0  0  0  0  0  0  0
   -7.8270   -4.0580  -23.5410 C   0  0  0  0  0  0  0  0  0  0  0  0
   -7.2740   -2.7110  -23.9170 C   0  0  0  0  0  0  0  0  0  0  0  0
   -6.1930   -2.6620  -23.7520 H   0  0  0  0  0  0  0  0  0  0  0  0
   -7.4140   -2.5520  -24.9920 H   0  0  0  0  0  0  0  0  0  0  0  0
   -7.1030   -4.8530  -23.3610 H   0  0  0  0  0  0  0  0  0  0  0  0
   -9.4000   -5.3650  -23.1910 H   0  0  0  0  0  0  0  0  0  0  0  0
  -11.2430   -3.9560  -23.5810 H   0  0  0  0  0  0  0  0  0  0  0  0
  -11.3050   -1.6500  -23.9100 H   0  0  0  0  0  0  0  0  0  0  0  0
   -8.9320   -1.0010  -24.9710 H   0  0  0  0  0  0  0  0  0  0  0  0
   -9.4460   -0.1770  -23.5110 H   0  0  0  0  0  0  0  0  0  0  0  0
  1  2  2  0  0  0  0
  2  3  1  0  0  0  0
  2 22  1  0  0  0  0
  3  4  1  0  0  0  0
  3 20  1  0  0  0  0
  3 21  1  0  0  0  0
  4  5  2  0  0  0  0
  4 13  1  0  0  0  0
  5  6  1  0  0  0  0
  5 19  1  0  0  0  0
  6  7  2  0  0  0  0
  7  8  1  0  0  0  0
  7 18  1  0  0  0  0
  8  9  2  0  0  0  0
  8 13  1  0  0  0  0
  9 10  1  0  0  0  0
  9 17  1  0  0  0  0
 10 11  2  0  0  0  0
 10 16  1  0  0  0  0
 11 12  1  0  0  0  0
 11 15  1  0  0  0  0
 12 13  2  0  0  0  0
 12 14  1  0  0  0  0
 22 23  1  0  0  0  0
 22 28  1  0  0  0  0
 23 24  1  0  0  0  0
 23 35  1  0  0  0  0
 23 36  1  0  0  0  0
 24 25  2  0  0  0  0
 24 34  1  0  0  0  0
 25 26  1  0  0  0  0
 25 33  1  0  0  0  0
 26 27  2  0  0  0  0
 26 32  1  0  0  0  0
 27 28  1  0  0  0  0
 27 31  1  0  0  0  0
 28 29  1  0  0  0  0
 28 30  1  0  0  0  0
M  END
>  <MODEL>
       6

$$$$
best_conformers_81.pdb
 OpenBabel01292518153D

 36 38  0  0  0  0  0  0  0  0999 V2000
   -8.1910   -0.1930  -21.5850 O   0  0  0  0  0  0  0  0  0  0  0  0
   -7.8460   -1.3180  -21.8890 C   0  0  0  0  0  0  0  0  0  0  0  0
   -6.8030   -2.0820  -21.0580 C   0  0  0  0  0  0  0  0  0  0  0  0
   -6.1480   -1.2190  -20.0120 C   0  0  0  0  0  0  0  0  0  0  0  0
   -6.5380   -1.2860  -18.6990 C   0  0  0  0  0  0  0  0  0  0  0  0
   -6.0460   -0.5230  -17.6840 N   0  0  0  0  0  0  0  0  0  0  0  0
   -5.1200    0.3520  -18.0080 C   0  0  0  0  0  0  0  0  0  0  0  0
   -4.6240    0.5440  -19.3260 C   0  0  0  0  0  0  0  0  0  0  0  0
   -3.6280    1.5110  -19.6220 C   0  0  0  0  0  0  0  0  0  0  0  0
   -3.1840    1.6720  -20.9090 C   0  0  0  0  0  0  0  0  0  0  0  0
   -3.7120    0.8790  -21.9510 C   0  0  0  0  0  0  0  0  0  0  0  0
   -4.6760   -0.0650  -21.6880 C   0  0  0  0  0  0  0  0  0  0  0  0
   -5.1570   -0.2560  -20.3640 C   0  0  0  0  0  0  0  0  0  0  0  0
   -5.0860   -0.6640  -22.4940 H   0  0  0  0  0  0  0  0  0  0  0  0
   -3.3570    1.0220  -22.9680 H   0  0  0  0  0  0  0  0  0  0  0  0
   -2.4310    2.4220  -21.1310 H   0  0  0  0  0  0  0  0  0  0  0  0
   -3.2460    2.1210  -18.8050 H   0  0  0  0  0  0  0  0  0  0  0  0
   -4.7140    0.9620  -17.2010 H   0  0  0  0  0  0  0  0  0  0  0  0
   -7.2960   -2.0080  -18.3930 H   0  0  0  0  0  0  0  0  0  0  0  0
   -7.3220   -2.9080  -20.5650 H   0  0  0  0  0  0  0  0  0  0  0  0
   -6.0610   -2.5460  -21.7230 H   0  0  0  0  0  0  0  0  0  0  0  0
   -8.3180   -1.9580  -23.0240 N   0  0  0  0  0  0  0  0  0  0  0  0
   -9.3210   -1.2580  -23.8070 C   0  0  0  0  0  0  0  0  0  0  0  0
  -10.7420   -1.3630  -23.3030 C   0  0  0  0  0  0  0  0  0  0  0  0
  -11.2740   -2.3280  -22.5380 C   0  0  0  0  0  0  0  0  0  0  0  0
  -10.6000   -3.4970  -21.9470 C   0  0  0  0  0  0  0  0  0  0  0  0
   -9.4060   -4.0210  -22.2530 C   0  0  0  0  0  0  0  0  0  0  0  0
   -8.3540   -3.4070  -23.1440 C   0  0  0  0  0  0  0  0  0  0  0  0
   -7.3690   -3.8350  -22.9220 H   0  0  0  0  0  0  0  0  0  0  0  0
   -8.5070   -3.6330  -24.2120 H   0  0  0  0  0  0  0  0  0  0  0  0
   -9.1290   -4.9800  -21.8220 H   0  0  0  0  0  0  0  0  0  0  0  0
  -11.2010   -3.9790  -21.1820 H   0  0  0  0  0  0  0  0  0  0  0  0
  -12.3380   -2.2740  -22.3040 H   0  0  0  0  0  0  0  0  0  0  0  0
  -11.3660   -0.5220  -23.6050 H   0  0  0  0  0  0  0  0  0  0  0  0
   -9.0170   -0.2040  -23.8380 H   0  0  0  0  0  0  0  0  0  0  0  0
   -9.2600   -1.6700  -24.8300 H   0  0  0  0  0  0  0  0  0  0  0  0
  1  2  2  0  0  0  0
  2  3  1  0  0  0  0
  2 22  1  0  0  0  0
  3  4  1  0  0  0  0
  3 20  1  0  0  0  0
  3 21  1  0  0  0  0
  4  5  2  0  0  0  0
  4 13  1  0  0  0  0
  5  6  1  0  0  0  0
  5 19  1  0  0  0  0
  6  7  2  0  0  0  0
  7  8  1  0  0  0  0
  7 18  1  0  0  0  0
  8  9  2  0  0  0  0
  8 13  1  0  0  0  0
  9 10  1  0  0  0  0
  9 17  1  0  0  0  0
 10 11  2  0  0  0  0
 10 16  1  0  0  0  0
 11 12  1  0  0  0  0
 11 15  1  0  0  0  0
 12 13  2  0  0  0  0
 12 14  1  0  0  0  0
 22 23  1  0  0  0  0
 22 28  1  0  0  0  0
 23 24  1  0  0  0  0
 23 35  1  0  0  0  0
 23 36  1  0  0  0  0
 24 25  2  0  0  0  0
 24 34  1  0  0  0  0
 25 26  1  0  0  0  0
 25 33  1  0  0  0  0
 26 27  2  0  0  0  0
 26 32  1  0  0  0  0
 27 28  1  0  0  0  0
 27 31  1  0  0  0  0
 28 29  1  0  0  0  0
 28 30  1  0  0  0  0
M  END
>  <MODEL>
       7

$$$$
best_conformers_81.pdb
 OpenBabel01292518153D

 36 38  0  0  0  0  0  0  0  0999 V2000
   -8.1910   -0.1920  -21.5850 O   0  0  0  0  0  0  0  0  0  0  0  0
   -7.8450   -1.3170  -21.8890 C   0  0  0  0  0  0  0  0  0  0  0  0
   -6.8030   -2.0810  -21.0580 C   0  0  0  0  0  0  0  0  0  0  0  0
   -6.1480   -1.2190  -20.0120 C   0  0  0  0  0  0  0  0  0  0  0  0
   -6.5390   -1.2860  -18.6990 C   0  0  0  0  0  0  0  0  0  0  0  0
   -6.0470   -0.5230  -17.6840 N   0  0  0  0  0  0  0  0  0  0  0  0
   -5.1200    0.3520  -18.0080 C   0  0  0  0  0  0  0  0  0  0  0  0
   -4.6240    0.5440  -19.3270 C   0  0  0  0  0  0  0  0  0  0  0  0
   -3.6280    1.5110  -19.6210 C   0  0  0  0  0  0  0  0  0  0  0  0
   -3.1840    1.6720  -20.9090 C   0  0  0  0  0  0  0  0  0  0  0  0
   -3.7120    0.8790  -21.9510 C   0  0  0  0  0  0  0  0  0  0  0  0
   -4.6760   -0.0650  -21.6880 C   0  0  0  0  0  0  0  0  0  0  0  0
   -5.1570   -0.2560  -20.3640 C   0  0  0  0  0  0  0  0  0  0  0  0
   -5.0850   -0.6640  -22.4940 H   0  0  0  0  0  0  0  0  0  0  0  0
   -3.3570    1.0220  -22.9690 H   0  0  0  0  0  0  0  0  0  0  0  0
   -2.4310    2.4210  -21.1310 H   0  0  0  0  0  0  0  0  0  0  0  0
   -3.2460    2.1210  -18.8050 H   0  0  0  0  0  0  0  0  0  0  0  0
   -4.7140    0.9620  -17.2010 H   0  0  0  0  0  0  0  0  0  0  0  0
   -7.2960   -2.0080  -18.3930 H   0  0  0  0  0  0  0  0  0  0  0  0
   -7.3230   -2.9080  -20.5660 H   0  0  0  0  0  0  0  0  0  0  0  0
   -6.0610   -2.5460  -21.7230 H   0  0  0  0  0  0  0  0  0  0  0  0
   -8.3180   -1.9570  -23.0240 N   0  0  0  0  0  0  0  0  0  0  0  0
   -8.3540   -3.4070  -23.1440 C   0  0  0  0  0  0  0  0  0  0  0  0
   -9.4060   -4.0200  -22.2530 C   0  0  0  0  0  0  0  0  0  0  0  0
  -10.6010   -3.4970  -21.9470 C   0  0  0  0  0  0  0  0  0  0  0  0
  -11.2740   -2.3270  -22.5390 C   0  0  0  0  0  0  0  0  0  0  0  0
  -10.7420   -1.3630  -23.3030 C   0  0  0  0  0  0  0  0  0  0  0  0
   -9.3210   -1.2570  -23.8080 C   0  0  0  0  0  0  0  0  0  0  0  0
   -9.0160   -0.2030  -23.8390 H   0  0  0  0  0  0  0  0  0  0  0  0
   -9.2590   -1.6690  -24.8310 H   0  0  0  0  0  0  0  0  0  0  0  0
  -11.3650   -0.5210  -23.6070 H   0  0  0  0  0  0  0  0  0  0  0  0
  -12.3380   -2.2720  -22.3050 H   0  0  0  0  0  0  0  0  0  0  0  0
  -11.2000   -3.9800  -21.1820 H   0  0  0  0  0  0  0  0  0  0  0  0
   -9.1290   -4.9790  -21.8220 H   0  0  0  0  0  0  0  0  0  0  0  0
   -8.5070   -3.6330  -24.2120 H   0  0  0  0  0  0  0  0  0  0  0  0
   -7.3690   -3.8350  -22.9220 H   0  0  0  0  0  0  0  0  0  0  0  0
  1  2  2  0  0  0  0
  2  3  1  0  0  0  0
  2 22  1  0  0  0  0
  3  4  1  0  0  0  0
  3 20  1  0  0  0  0
  3 21  1  0  0  0  0
  4  5  2  0  0  0  0
  4 13  1  0  0  0  0
  5  6  1  0  0  0  0
  5 19  1  0  0  0  0
  6  7  2  0  0  0  0
  7  8  1  0  0  0  0
  7 18  1  0  0  0  0
  8  9  2  0  0  0  0
  8 13  1  0  0  0  0
  9 10  1  0  0  0  0
  9 17  1  0  0  0  0
 10 11  2  0  0  0  0
 10 16  1  0  0  0  0
 11 12  1  0  0  0  0
 11 15  1  0  0  0  0
 12 13  2  0  0  0  0
 12 14  1  0  0  0  0
 22 23  1  0  0  0  0
 22 28  1  0  0  0  0
 23 24  1  0  0  0  0
 23 35  1  0  0  0  0
 23 36  1  0  0  0  0
 24 25  2  0  0  0  0
 24 34  1  0  0  0  0
 25 26  1  0  0  0  0
 25 33  1  0  0  0  0
 26 27  2  0  0  0  0
 26 32  1  0  0  0  0
 27 28  1  0  0  0  0
 27 31  1  0  0  0  0
 28 29  1  0  0  0  0
 28 30  1  0  0  0  0
M  END
>  <MODEL>
       8

$$$$
best_conformers_81.pdb
 OpenBabel01292518153D

 36 38  0  0  0  0  0  0  0  0999 V2000
   -8.3830   -0.3560  -21.4520 O   0  0  0  0  0  0  0  0  0  0  0  0
   -7.8200   -1.3310  -21.9070 C   0  0  0  0  0  0  0  0  0  0  0  0
   -6.7840   -2.0940  -21.0450 C   0  0  0  0  0  0  0  0  0  0  0  0
   -6.1400   -1.2090  -20.0010 C   0  0  0  0  0  0  0  0  0  0  0  0
   -6.5150   -1.2750  -18.6840 C   0  0  0  0  0  0  0  0  0  0  0  0
   -6.0180   -0.5080  -17.6730 N   0  0  0  0  0  0  0  0  0  0  0  0
   -5.0960    0.3690  -17.9990 C   0  0  0  0  0  0  0  0  0  0  0  0
   -4.6060    0.5550  -19.3210 C   0  0  0  0  0  0  0  0  0  0  0  0
   -3.6150    1.5220  -19.6280 C   0  0  0  0  0  0  0  0  0  0  0  0
   -3.1720    1.6850  -20.9140 C   0  0  0  0  0  0  0  0  0  0  0  0
   -3.7070    0.8830  -21.9490 C   0  0  0  0  0  0  0  0  0  0  0  0
   -4.6660   -0.0640  -21.6820 C   0  0  0  0  0  0  0  0  0  0  0  0
   -5.1410   -0.2530  -20.3560 C   0  0  0  0  0  0  0  0  0  0  0  0
   -5.0650   -0.6620  -22.5000 H   0  0  0  0  0  0  0  0  0  0  0  0
   -3.3590    1.0230  -22.9680 H   0  0  0  0  0  0  0  0  0  0  0  0
   -2.4190    2.4320  -21.1510 H   0  0  0  0  0  0  0  0  0  0  0  0
   -3.2170    2.1400  -18.8260 H   0  0  0  0  0  0  0  0  0  0  0  0
   -4.6890    0.9900  -17.1970 H   0  0  0  0  0  0  0  0  0  0  0  0
   -7.2730   -1.9880  -18.3680 H   0  0  0  0  0  0  0  0  0  0  0  0
   -6.0150   -2.5780  -21.6590 H   0  0  0  0  0  0  0  0  0  0  0  0
   -7.3300   -2.8970  -20.5330 H   0  0  0  0  0  0  0  0  0  0  0  0
   -8.1120   -1.7820  -23.1860 N   0  0  0  0  0  0  0  0  0  0  0  0
   -7.5700   -2.9920  -23.7680 C   0  0  0  0  0  0  0  0  0  0  0  0
   -6.2470   -2.8470  -24.4720 C   0  0  0  0  0  0  0  0  0  0  0  0
   -5.7360   -1.7520  -25.0490 C   0  0  0  0  0  0  0  0  0  0  0  0
   -6.2880   -0.3870  -25.1400 C   0  0  0  0  0  0  0  0  0  0  0  0
   -7.4930    0.0560  -24.7540 C   0  0  0  0  0  0  0  0  0  0  0  0
   -8.5860   -0.7880  -24.1450 C   0  0  0  0  0  0  0  0  0  0  0  0
   -9.1020   -1.3380  -24.9420 H   0  0  0  0  0  0  0  0  0  0  0  0
   -9.3320   -0.1540  -23.6570 H   0  0  0  0  0  0  0  0  0  0  0  0
   -7.7190    1.1130  -24.8940 H   0  0  0  0  0  0  0  0  0  0  0  0
   -5.6260    0.3260  -25.6260 H   0  0  0  0  0  0  0  0  0  0  0  0
   -4.7790   -1.8730  -25.5530 H   0  0  0  0  0  0  0  0  0  0  0  0
   -5.6510   -3.7590  -24.5140 H   0  0  0  0  0  0  0  0  0  0  0  0
   -7.5160   -3.7670  -22.9980 H   0  0  0  0  0  0  0  0  0  0  0  0
   -8.3170   -3.3520  -24.4890 H   0  0  0  0  0  0  0  0  0  0  0  0
  1  2  2  0  0  0  0
  2  3  1  0  0  0  0
  2 22  1  0  0  0  0
  3  4  1  0  0  0  0
  3 20  1  0  0  0  0
  3 21  1  0  0  0  0
  4  5  2  0  0  0  0
  4 13  1  0  0  0  0
  5  6  1  0  0  0  0
  5 19  1  0  0  0  0
  6  7  2  0  0  0  0
  7  8  1  0  0  0  0
  7 18  1  0  0  0  0
  8  9  2  0  0  0  0
  8 13  1  0  0  0  0
  9 10  1  0  0  0  0
  9 17  1  0  0  0  0
 10 11  2  0  0  0  0
 10 16  1  0  0  0  0
 11 12  1  0  0  0  0
 11 15  1  0  0  0  0
 12 13  2  0  0  0  0
 12 14  1  0  0  0  0
 22 23  1  0  0  0  0
 22 28  1  0  0  0  0
 23 24  1  0  0  0  0
 23 35  1  0  0  0  0
 23 36  1  0  0  0  0
 24 25  2  0  0  0  0
 24 34  1  0  0  0  0
 25 26  1  0  0  0  0
 25 33  1  0  0  0  0
 26 27  2  0  0  0  0
 26 32  1  0  0  0  0
 27 28  1  0  0  0  0
 27 31  1  0  0  0  0
 28 29  1  0  0  0  0
 28 30  1  0  0  0  0
M  END
>  <MODEL>
       9

$$$$
best_conformers_81.pdb
 OpenBabel01292518153D

 36 38  0  0  0  0  0  0  0  0999 V2000
   -8.3830   -0.3560  -21.4520 O   0  0  0  0  0  0  0  0  0  0  0  0
   -7.8200   -1.3310  -21.9070 C   0  0  0  0  0  0  0  0  0  0  0  0
   -6.7840   -2.0940  -21.0450 C   0  0  0  0  0  0  0  0  0  0  0  0
   -6.1400   -1.2090  -20.0010 C   0  0  0  0  0  0  0  0  0  0  0  0
   -6.5150   -1.2750  -18.6840 C   0  0  0  0  0  0  0  0  0  0  0  0
   -6.0180   -0.5080  -17.6730 N   0  0  0  0  0  0  0  0  0  0  0  0
   -5.0960    0.3690  -17.9990 C   0  0  0  0  0  0  0  0  0  0  0  0
   -4.6060    0.5550  -19.3210 C   0  0  0  0  0  0  0  0  0  0  0  0
   -3.6150    1.5220  -19.6280 C   0  0  0  0  0  0  0  0  0  0  0  0
   -3.1720    1.6850  -20.9140 C   0  0  0  0  0  0  0  0  0  0  0  0
   -3.7070    0.8830  -21.9490 C   0  0  0  0  0  0  0  0  0  0  0  0
   -4.6660   -0.0640  -21.6820 C   0  0  0  0  0  0  0  0  0  0  0  0
   -5.1410   -0.2530  -20.3560 C   0  0  0  0  0  0  0  0  0  0  0  0
   -5.0650   -0.6620  -22.5000 H   0  0  0  0  0  0  0  0  0  0  0  0
   -3.3580    1.0230  -22.9680 H   0  0  0  0  0  0  0  0  0  0  0  0
   -2.4190    2.4320  -21.1510 H   0  0  0  0  0  0  0  0  0  0  0  0
   -3.2170    2.1400  -18.8260 H   0  0  0  0  0  0  0  0  0  0  0  0
   -4.6890    0.9900  -17.1970 H   0  0  0  0  0  0  0  0  0  0  0  0
   -7.2730   -1.9880  -18.3680 H   0  0  0  0  0  0  0  0  0  0  0  0
   -7.3300   -2.8970  -20.5330 H   0  0  0  0  0  0  0  0  0  0  0  0
   -6.0150   -2.5780  -21.6590 H   0  0  0  0  0  0  0  0  0  0  0  0
   -8.1120   -1.7820  -23.1860 N   0  0  0  0  0  0  0  0  0  0  0  0
   -8.5860   -0.7880  -24.1450 C   0  0  0  0  0  0  0  0  0  0  0  0
   -7.4930    0.0560  -24.7540 C   0  0  0  0  0  0  0  0  0  0  0  0
   -6.2880   -0.3870  -25.1400 C   0  0  0  0  0  0  0  0  0  0  0  0
   -5.7360   -1.7510  -25.0490 C   0  0  0  0  0  0  0  0  0  0  0  0
   -6.2470   -2.8460  -24.4720 C   0  0  0  0  0  0  0  0  0  0  0  0
   -7.5700   -2.9910  -23.7680 C   0  0  0  0  0  0  0  0  0  0  0  0
   -8.3160   -3.3520  -24.4890 H   0  0  0  0  0  0  0  0  0  0  0  0
   -7.5160   -3.7670  -22.9980 H   0  0  0  0  0  0  0  0  0  0  0  0
   -5.6510   -3.7590  -24.5140 H   0  0  0  0  0  0  0  0  0  0  0  0
   -4.7790   -1.8720  -25.5530 H   0  0  0  0  0  0  0  0  0  0  0  0
   -5.6260    0.3260  -25.6260 H   0  0  0  0  0  0  0  0  0  0  0  0
   -7.7190    1.1140  -24.8940 H   0  0  0  0  0  0  0  0  0  0  0  0
   -9.3320   -0.1540  -23.6570 H   0  0  0  0  0  0  0  0  0  0  0  0
   -9.1010   -1.3380  -24.9420 H   0  0  0  0  0  0  0  0  0  0  0  0
  1  2  2  0  0  0  0
  2  3  1  0  0  0  0
  2 22  1  0  0  0  0
  3  4  1  0  0  0  0
  3 20  1  0  0  0  0
  3 21  1  0  0  0  0
  4  5  2  0  0  0  0
  4 13  1  0  0  0  0
  5  6  1  0  0  0  0
  5 19  1  0  0  0  0
  6  7  2  0  0  0  0
  7  8  1  0  0  0  0
  7 18  1  0  0  0  0
  8  9  2  0  0  0  0
  8 13  1  0  0  0  0
  9 10  1  0  0  0  0
  9 17  1  0  0  0  0
 10 11  2  0  0  0  0
 10 16  1  0  0  0  0
 11 12  1  0  0  0  0
 11 15  1  0  0  0  0
 12 13  2  0  0  0  0
 12 14  1  0  0  0  0
 22 23  1  0  0  0  0
 22 28  1  0  0  0  0
 23 24  1  0  0  0  0
 23 35  1  0  0  0  0
 23 36  1  0  0  0  0
 24 25  2  0  0  0  0
 24 34  1  0  0  0  0
 25 26  1  0  0  0  0
 25 33  1  0  0  0  0
 26 27  2  0  0  0  0
 26 32  1  0  0  0  0
 27 28  1  0  0  0  0
 27 31  1  0  0  0  0
 28 29  1  0  0  0  0
 28 30  1  0  0  0  0
M  END
>  <MODEL>
      10

$$$$
