best_conformers_37.pdb
 OpenBabel01292518153D

 56 60  0  0  1  0  0  0  0  0999 V2000
   -6.0180   -7.4410  -26.0170 C   0  0  0  0  0  0  0  0  0  0  0  0
   -6.5780   -6.1470  -26.3660 N   0  0  0  0  0  0  0  0  0  0  0  0
   -5.8570   -5.0250  -26.1300 C   0  0  0  0  0  0  0  0  0  0  0  0
   -4.7060   -5.0660  -25.7160 O   0  0  0  0  0  0  0  0  0  0  0  0
   -6.5800   -3.6980  -26.3950 C   0  0  0  0  0  0  0  0  0  0  0  0
   -7.5600   -3.3360  -25.3780 N   0  0  0  0  0  0  0  0  0  0  0  0
   -7.0990   -2.5080  -24.2680 C   0  0  0  0  0  0  0  0  0  0  0  0
   -7.8870   -2.7190  -22.9590 C   0  0  2  0  0  0  0  0  0  0  0  0
   -7.5320   -1.5570  -22.0120 C   0  0  0  0  0  0  0  0  0  0  0  0
   -7.8520   -0.3890  -22.1360 O   0  0  0  0  0  0  0  0  0  0  0  0
   -6.7770   -2.0410  -20.9690 N   0  0  0  0  0  0  0  0  0  0  0  0
   -6.1740   -1.1890  -20.0100 C   0  0  0  0  0  0  0  0  0  0  0  0
   -6.5320   -1.2940  -18.6900 C   0  0  0  0  0  0  0  0  0  0  0  0
   -6.0240   -0.5340  -17.6900 N   0  0  0  0  0  0  0  0  0  0  0  0
   -5.1090    0.3490  -18.0170 C   0  0  0  0  0  0  0  0  0  0  0  0
   -4.6160    0.5410  -19.3410 C   0  0  0  0  0  0  0  0  0  0  0  0
   -3.6120    1.5020  -19.6360 C   0  0  0  0  0  0  0  0  0  0  0  0
   -3.1400    1.6470  -20.9120 C   0  0  0  0  0  0  0  0  0  0  0  0
   -3.6450    0.8310  -21.9500 C   0  0  0  0  0  0  0  0  0  0  0  0
   -4.6170   -0.1010  -21.6900 C   0  0  0  0  0  0  0  0  0  0  0  0
   -5.1490   -0.2570  -20.3780 C   0  0  0  0  0  0  0  0  0  0  0  0
   -4.9980   -0.7170  -22.4980 H   0  0  0  0  0  0  0  0  0  0  0  0
   -3.2750    0.9570  -22.9630 H   0  0  0  0  0  0  0  0  0  0  0  0
   -2.3850    2.3950  -21.1360 H   0  0  0  0  0  0  0  0  0  0  0  0
   -3.2380    2.1220  -18.8250 H   0  0  0  0  0  0  0  0  0  0  0  0
   -4.7110    0.9650  -17.2110 H   0  0  0  0  0  0  0  0  0  0  0  0
   -7.2820   -2.0250  -18.3910 H   0  0  0  0  0  0  0  0  0  0  0  0
   -6.4670   -3.4550  -21.0710 C   0  0  0  0  0  0  0  0  0  0  0  0
   -7.4760   -3.9790  -22.1080 C   0  0  2  0  0  0  0  0  0  0  0  0
   -6.9650   -5.1910  -22.8820 C   0  0  0  0  0  0  0  0  0  0  0  0
   -6.0120   -4.9780  -23.3830 H   0  0  0  0  0  0  0  0  0  0  0  0
   -6.8040   -6.0440  -22.2140 H   0  0  0  0  0  0  0  0  0  0  0  0
   -7.6900   -5.4930  -23.6440 H   0  0  0  0  0  0  0  0  0  0  0  0
   -8.4030   -4.2570  -21.5860 H   0  0  0  0  0  0  0  0  0  0  0  0
   -6.5510   -3.9250  -20.0860 H   0  0  0  0  0  0  0  0  0  0  0  0
   -5.4320   -3.6100  -21.4150 H   0  0  0  0  0  0  0  0  0  0  0  0
   -9.3620   -2.7240  -23.2880 C   0  0  0  0  0  0  0  0  0  0  0  0
  -10.2660   -2.4030  -22.2720 C   0  0  0  0  0  0  0  0  0  0  0  0
  -11.6250   -2.5340  -22.4800 C   0  0  0  0  0  0  0  0  0  0  0  0
  -12.0890   -3.0340  -23.6910 C   0  0  0  0  0  0  0  0  0  0  0  0
  -11.2070   -3.3320  -24.7250 C   0  0  0  0  0  0  0  0  0  0  0  0
   -9.8350   -3.1780  -24.5270 C   0  0  0  0  0  0  0  0  0  0  0  0
   -8.8830   -3.6060  -25.6160 C   0  0  0  0  0  0  0  0  0  0  0  0
   -9.2440   -4.1910  -26.6320 O   0  0  0  0  0  0  0  0  0  0  0  0
  -11.5360   -3.6850  -25.6980 H   0  0  0  0  0  0  0  0  0  0  0  0
  -13.1580   -3.2120  -23.7570 H   0  0  0  0  0  0  0  0  0  0  0  0
  -12.3360   -2.2560  -21.7110 H   0  0  0  0  0  0  0  0  0  0  0  0
   -9.8850   -2.0720  -21.3080 H   0  0  0  0  0  0  0  0  0  0  0  0
   -7.1910   -1.4350  -24.5070 H   0  0  0  0  0  0  0  0  0  0  0  0
   -6.0410   -2.7590  -24.1110 H   0  0  0  0  0  0  0  0  0  0  0  0
   -5.7970   -2.9360  -26.4200 H   0  0  0  0  0  0  0  0  0  0  0  0
   -7.1160   -3.7250  -27.3490 H   0  0  0  0  0  0  0  0  0  0  0  0
   -7.5240   -6.0580  -26.7180 H   0  0  0  0  0  0  0  0  0  0  0  0
   -5.0950   -7.6380  -26.5800 H   0  0  0  0  0  0  0  0  0  0  0  0
   -5.7530   -7.4760  -24.9490 H   0  0  0  0  0  0  0  0  0  0  0  0
   -6.7680   -8.2020  -26.2450 H   0  0  0  0  0  0  0  0  0  0  0  0
  1  2  1  0  0  0  0
  1 54  1  0  0  0  0
  1 55  1  0  0  0  0
  1 56  1  0  0  0  0
  2  3  1  0  0  0  0
  2 53  1  0  0  0  0
  3  4  2  0  0  0  0
  3  5  1  0  0  0  0
  5  6  1  0  0  0  0
  5 51  1  0  0  0  0
  5 52  1  0  0  0  0
  6  7  1  0  0  0  0
  6 43  1  0  0  0  0
  7  8  1  0  0  0  0
  7 49  1  0  0  0  0
  7 50  1  0  0  0  0
  8  9  1  1  0  0  0
  8 29  1  0  0  0  0
  8 37  1  0  0  0  0
  9 10  2  0  0  0  0
  9 11  1  0  0  0  0
 11 12  1  0  0  0  0
 11 28  1  0  0  0  0
 12 13  2  0  0  0  0
 12 21  1  0  0  0  0
 13 14  1  0  0  0  0
 13 27  1  0  0  0  0
 14 15  2  0  0  0  0
 15 16  1  0  0  0  0
 15 26  1  0  0  0  0
 16 17  2  0  0  0  0
 16 21  1  0  0  0  0
 17 18  1  0  0  0  0
 17 25  1  0  0  0  0
 18 19  2  0  0  0  0
 18 24  1  0  0  0  0
 19 20  1  0  0  0  0
 19 23  1  0  0  0  0
 20 21  2  0  0  0  0
 20 22  1  0  0  0  0
 28 29  1  0  0  0  0
 28 35  1  0  0  0  0
 28 36  1  0  0  0  0
 29 30  1  0  0  0  0
 29 34  1  1  0  0  0
 30 31  1  0  0  0  0
 30 32  1  0  0  0  0
 30 33  1  0  0  0  0
 37 38  2  0  0  0  0
 37 42  1  0  0  0  0
 38 39  1  0  0  0  0
 38 48  1  0  0  0  0
 39 40  2  0  0  0  0
 39 47  1  0  0  0  0
 40 41  1  0  0  0  0
 40 46  1  0  0  0  0
 41 42  2  0  0  0  0
 41 45  1  0  0  0  0
 42 43  1  0  0  0  0
 43 44  2  0  0  0  0
M  END
>  <MODEL>
       1

$$$$
best_conformers_37.pdb
 OpenBabel01292518153D

 56 60  0  0  1  0  0  0  0  0999 V2000
   -6.5590   -1.9650  -29.5660 C   0  0  0  0  0  0  0  0  0  0  0  0
   -6.8060   -2.9990  -28.5790 N   0  0  0  0  0  0  0  0  0  0  0  0
   -6.2350   -2.8360  -27.3590 C   0  0  0  0  0  0  0  0  0  0  0  0
   -5.4680   -1.9170  -27.1080 O   0  0  0  0  0  0  0  0  0  0  0  0
   -6.5760   -3.8740  -26.2990 C   0  0  0  0  0  0  0  0  0  0  0  0
   -7.5520   -3.3940  -25.3390 N   0  0  0  0  0  0  0  0  0  0  0  0
   -7.0800   -2.5190  -24.2780 C   0  0  0  0  0  0  0  0  0  0  0  0
   -7.8410   -2.7230  -22.9580 C   0  0  2  0  0  0  0  0  0  0  0  0
   -7.4940   -1.5560  -22.0120 C   0  0  0  0  0  0  0  0  0  0  0  0
   -7.8210   -0.3940  -22.1350 O   0  0  0  0  0  0  0  0  0  0  0  0
   -6.7510   -2.0450  -20.9660 N   0  0  0  0  0  0  0  0  0  0  0  0
   -6.1600   -1.1970  -20.0060 C   0  0  0  0  0  0  0  0  0  0  0  0
   -6.5340   -1.3090  -18.6920 C   0  0  0  0  0  0  0  0  0  0  0  0
   -6.0420   -0.5430  -17.6890 N   0  0  0  0  0  0  0  0  0  0  0  0
   -5.1250    0.3390  -18.0190 C   0  0  0  0  0  0  0  0  0  0  0  0
   -4.6290    0.5330  -19.3420 C   0  0  0  0  0  0  0  0  0  0  0  0
   -3.6260    1.4960  -19.6300 C   0  0  0  0  0  0  0  0  0  0  0  0
   -3.1450    1.6430  -20.9020 C   0  0  0  0  0  0  0  0  0  0  0  0
   -3.6410    0.8330  -21.9490 C   0  0  0  0  0  0  0  0  0  0  0  0
   -4.6160   -0.0990  -21.7000 C   0  0  0  0  0  0  0  0  0  0  0  0
   -5.1490   -0.2610  -20.3850 C   0  0  0  0  0  0  0  0  0  0  0  0
   -4.9860   -0.7090  -22.5200 H   0  0  0  0  0  0  0  0  0  0  0  0
   -3.2570    0.9610  -22.9580 H   0  0  0  0  0  0  0  0  0  0  0  0
   -2.3890    2.3940  -21.1180 H   0  0  0  0  0  0  0  0  0  0  0  0
   -3.2610    2.1130  -18.8130 H   0  0  0  0  0  0  0  0  0  0  0  0
   -4.7170    0.9560  -17.2180 H   0  0  0  0  0  0  0  0  0  0  0  0
   -7.2930   -2.0420  -18.4130 H   0  0  0  0  0  0  0  0  0  0  0  0
   -6.4310   -3.4510  -21.0740 C   0  0  0  0  0  0  0  0  0  0  0  0
   -7.4550   -3.9790  -22.0890 C   0  0  2  0  0  0  0  0  0  0  0  0
   -6.9740   -5.2050  -22.8560 C   0  0  0  0  0  0  0  0  0  0  0  0
   -6.0420   -4.9900  -23.3910 H   0  0  0  0  0  0  0  0  0  0  0  0
   -7.7180   -5.5360  -23.5860 H   0  0  0  0  0  0  0  0  0  0  0  0
   -6.7740   -6.0370  -22.1770 H   0  0  0  0  0  0  0  0  0  0  0  0
   -8.3760   -4.2400  -21.5450 H   0  0  0  0  0  0  0  0  0  0  0  0
   -5.4060   -3.5770  -21.4510 H   0  0  0  0  0  0  0  0  0  0  0  0
   -6.4920   -3.9210  -20.0880 H   0  0  0  0  0  0  0  0  0  0  0  0
   -9.3130   -2.7260  -23.2860 C   0  0  0  0  0  0  0  0  0  0  0  0
  -10.1960   -2.3870  -22.2580 C   0  0  0  0  0  0  0  0  0  0  0  0
  -11.5630   -2.5250  -22.4370 C   0  0  0  0  0  0  0  0  0  0  0  0
  -12.0490   -3.0380  -23.6390 C   0  0  0  0  0  0  0  0  0  0  0  0
  -11.1910   -3.3220  -24.6900 C   0  0  0  0  0  0  0  0  0  0  0  0
   -9.8160   -3.1640  -24.5140 C   0  0  0  0  0  0  0  0  0  0  0  0
   -8.8830   -3.5440  -25.6280 C   0  0  0  0  0  0  0  0  0  0  0  0
   -9.2810   -3.9810  -26.7020 O   0  0  0  0  0  0  0  0  0  0  0  0
  -11.5340   -3.6710  -25.6590 H   0  0  0  0  0  0  0  0  0  0  0  0
  -13.1060   -3.2520  -23.7120 H   0  0  0  0  0  0  0  0  0  0  0  0
  -12.2470   -2.2500  -21.6370 H   0  0  0  0  0  0  0  0  0  0  0  0
   -9.7880   -2.0410  -21.3070 H   0  0  0  0  0  0  0  0  0  0  0  0
   -6.0100   -2.7110  -24.1360 H   0  0  0  0  0  0  0  0  0  0  0  0
   -7.2220   -1.4710  -24.5770 H   0  0  0  0  0  0  0  0  0  0  0  0
   -5.6370   -4.0700  -25.7660 H   0  0  0  0  0  0  0  0  0  0  0  0
   -6.9670   -4.7870  -26.7480 H   0  0  0  0  0  0  0  0  0  0  0  0
   -7.5960   -3.6230  -28.6810 H   0  0  0  0  0  0  0  0  0  0  0  0
   -5.4910   -1.9230  -29.7880 H   0  0  0  0  0  0  0  0  0  0  0  0
   -7.1150   -2.1490  -30.4870 H   0  0  0  0  0  0  0  0  0  0  0  0
   -6.8240   -0.9900  -29.1520 H   0  0  0  0  0  0  0  0  0  0  0  0
  1  2  1  0  0  0  0
  1 54  1  0  0  0  0
  1 55  1  0  0  0  0
  1 56  1  0  0  0  0
  2  3  1  0  0  0  0
  2 53  1  0  0  0  0
  3  4  2  0  0  0  0
  3  5  1  0  0  0  0
  5  6  1  0  0  0  0
  5 51  1  0  0  0  0
  5 52  1  0  0  0  0
  6  7  1  0  0  0  0
  6 43  1  0  0  0  0
  7  8  1  0  0  0  0
  7 49  1  0  0  0  0
  7 50  1  0  0  0  0
  8  9  1  1  0  0  0
  8 29  1  0  0  0  0
  8 37  1  0  0  0  0
  9 10  2  0  0  0  0
  9 11  1  0  0  0  0
 11 12  1  0  0  0  0
 11 28  1  0  0  0  0
 12 13  2  0  0  0  0
 12 21  1  0  0  0  0
 13 14  1  0  0  0  0
 13 27  1  0  0  0  0
 14 15  2  0  0  0  0
 15 16  1  0  0  0  0
 15 26  1  0  0  0  0
 16 17  2  0  0  0  0
 16 21  1  0  0  0  0
 17 18  1  0  0  0  0
 17 25  1  0  0  0  0
 18 19  2  0  0  0  0
 18 24  1  0  0  0  0
 19 20  1  0  0  0  0
 19 23  1  0  0  0  0
 20 21  2  0  0  0  0
 20 22  1  0  0  0  0
 28 29  1  0  0  0  0
 28 35  1  0  0  0  0
 28 36  1  0  0  0  0
 29 30  1  0  0  0  0
 29 34  1  1  0  0  0
 30 31  1  0  0  0  0
 30 32  1  0  0  0  0
 30 33  1  0  0  0  0
 37 38  2  0  0  0  0
 37 42  1  0  0  0  0
 38 39  1  0  0  0  0
 38 48  1  0  0  0  0
 39 40  2  0  0  0  0
 39 47  1  0  0  0  0
 40 41  1  0  0  0  0
 40 46  1  0  0  0  0
 41 42  2  0  0  0  0
 41 45  1  0  0  0  0
 42 43  1  0  0  0  0
 43 44  2  0  0  0  0
M  END
>  <MODEL>
       2

$$$$
best_conformers_37.pdb
 OpenBabel01292518153D

 56 60  0  0  1  0  0  0  0  0999 V2000
   -7.4380    2.5120  -22.3960 C   0  0  0  0  0  0  0  0  0  0  0  0
   -8.0540    1.7540  -23.4690 N   0  0  0  0  0  0  0  0  0  0  0  0
   -7.2530    1.0430  -24.3030 C   0  0  0  0  0  0  0  0  0  0  0  0
   -6.0360    1.0850  -24.2400 O   0  0  0  0  0  0  0  0  0  0  0  0
   -7.9790    0.1510  -25.3080 C   0  0  0  0  0  0  0  0  0  0  0  0
   -8.5740   -0.9770  -24.6280 N   0  0  0  0  0  0  0  0  0  0  0  0
   -7.7400   -2.0760  -24.1670 C   0  0  0  0  0  0  0  0  0  0  0  0
   -8.1720   -2.6120  -22.7710 C   0  0  2  0  0  0  0  0  0  0  0  0
   -7.8390   -1.5930  -21.6700 C   0  0  0  0  0  0  0  0  0  0  0  0
   -8.4350   -0.5580  -21.4340 O   0  0  0  0  0  0  0  0  0  0  0  0
   -6.7700   -2.0480  -20.9480 N   0  0  0  0  0  0  0  0  0  0  0  0
   -6.1670   -1.2060  -19.9870 C   0  0  0  0  0  0  0  0  0  0  0  0
   -6.5680   -1.2850  -18.6800 C   0  0  0  0  0  0  0  0  0  0  0  0
   -6.0620   -0.5310  -17.6760 N   0  0  0  0  0  0  0  0  0  0  0  0
   -5.1290    0.3370  -18.0010 C   0  0  0  0  0  0  0  0  0  0  0  0
   -4.6340    0.5320  -19.3240 C   0  0  0  0  0  0  0  0  0  0  0  0
   -3.6400    1.5010  -19.6270 C   0  0  0  0  0  0  0  0  0  0  0  0
   -3.1940    1.6640  -20.9120 C   0  0  0  0  0  0  0  0  0  0  0  0
   -3.7280    0.8790  -21.9590 C   0  0  0  0  0  0  0  0  0  0  0  0
   -4.6930   -0.0630  -21.6940 C   0  0  0  0  0  0  0  0  0  0  0  0
   -5.1680   -0.2620  -20.3650 C   0  0  0  0  0  0  0  0  0  0  0  0
   -5.1090   -0.6440  -22.5130 H   0  0  0  0  0  0  0  0  0  0  0  0
   -3.3900    1.0310  -22.9800 H   0  0  0  0  0  0  0  0  0  0  0  0
   -2.4310    2.4060  -21.1330 H   0  0  0  0  0  0  0  0  0  0  0  0
   -3.2540    2.1110  -18.8160 H   0  0  0  0  0  0  0  0  0  0  0  0
   -4.7140    0.9440  -17.1970 H   0  0  0  0  0  0  0  0  0  0  0  0
   -7.3480   -1.9940  -18.4110 H   0  0  0  0  0  0  0  0  0  0  0  0
   -6.2040   -3.2870  -21.4300 C   0  0  0  0  0  0  0  0  0  0  0  0
   -7.3090   -3.8540  -22.3490 C   0  0  2  0  0  0  0  0  0  0  0  0
   -6.6930   -4.7090  -23.4610 C   0  0  0  0  0  0  0  0  0  0  0  0
   -5.9800   -4.1250  -24.0580 H   0  0  0  0  0  0  0  0  0  0  0  0
   -6.1380   -5.5550  -23.0360 H   0  0  0  0  0  0  0  0  0  0  0  0
   -7.4500   -5.1140  -24.1410 H   0  0  0  0  0  0  0  0  0  0  0  0
   -7.9560   -4.5000  -21.7480 H   0  0  0  0  0  0  0  0  0  0  0  0
   -5.2700   -3.1060  -21.9890 H   0  0  0  0  0  0  0  0  0  0  0  0
   -5.9600   -3.9500  -20.5920 H   0  0  0  0  0  0  0  0  0  0  0  0
   -9.6840   -2.7640  -22.7500 C   0  0  0  0  0  0  0  0  0  0  0  0
  -10.3440   -3.4440  -21.7230 C   0  0  0  0  0  0  0  0  0  0  0  0
  -11.7310   -3.5160  -21.7140 C   0  0  0  0  0  0  0  0  0  0  0  0
  -12.4840   -2.9940  -22.7650 C   0  0  0  0  0  0  0  0  0  0  0  0
  -11.8530   -2.2410  -23.7280 C   0  0  0  0  0  0  0  0  0  0  0  0
  -10.4820   -2.0580  -23.6560 C   0  0  0  0  0  0  0  0  0  0  0  0
   -9.9220   -0.9520  -24.4690 C   0  0  0  0  0  0  0  0  0  0  0  0
  -10.6310   -0.0620  -24.9230 O   0  0  0  0  0  0  0  0  0  0  0  0
  -12.3700   -1.7320  -24.5330 H   0  0  0  0  0  0  0  0  0  0  0  0
  -13.5640   -3.1090  -22.7530 H   0  0  0  0  0  0  0  0  0  0  0  0
  -12.2730   -3.9280  -20.8730 H   0  0  0  0  0  0  0  0  0  0  0  0
   -9.7710   -3.8870  -20.9120 H   0  0  0  0  0  0  0  0  0  0  0  0
   -7.7780   -2.9080  -24.8850 H   0  0  0  0  0  0  0  0  0  0  0  0
   -6.7060   -1.7130  -24.1180 H   0  0  0  0  0  0  0  0  0  0  0  0
   -7.2730   -0.1720  -26.0790 H   0  0  0  0  0  0  0  0  0  0  0  0
   -8.8080    0.6920  -25.7710 H   0  0  0  0  0  0  0  0  0  0  0  0
   -9.0220    1.4880  -23.3680 H   0  0  0  0  0  0  0  0  0  0  0  0
   -6.8050    1.8620  -21.7780 H   0  0  0  0  0  0  0  0  0  0  0  0
   -6.8110    3.3030  -22.8160 H   0  0  0  0  0  0  0  0  0  0  0  0
   -8.2140    2.9680  -21.7800 H   0  0  0  0  0  0  0  0  0  0  0  0
  1  2  1  0  0  0  0
  1 54  1  0  0  0  0
  1 55  1  0  0  0  0
  1 56  1  0  0  0  0
  2  3  1  0  0  0  0
  2 53  1  0  0  0  0
  3  4  2  0  0  0  0
  3  5  1  0  0  0  0
  5  6  1  0  0  0  0
  5 51  1  0  0  0  0
  5 52  1  0  0  0  0
  6  7  1  0  0  0  0
  6 43  1  0  0  0  0
  7  8  1  0  0  0  0
  7 49  1  0  0  0  0
  7 50  1  0  0  0  0
  8  9  1  1  0  0  0
  8 29  1  0  0  0  0
  8 37  1  0  0  0  0
  9 10  2  0  0  0  0
  9 11  1  0  0  0  0
 11 12  1  0  0  0  0
 11 28  1  0  0  0  0
 12 13  2  0  0  0  0
 12 21  1  0  0  0  0
 13 14  1  0  0  0  0
 13 27  1  0  0  0  0
 14 15  2  0  0  0  0
 15 16  1  0  0  0  0
 15 26  1  0  0  0  0
 16 17  2  0  0  0  0
 16 21  1  0  0  0  0
 17 18  1  0  0  0  0
 17 25  1  0  0  0  0
 18 19  2  0  0  0  0
 18 24  1  0  0  0  0
 19 20  1  0  0  0  0
 19 23  1  0  0  0  0
 20 21  2  0  0  0  0
 20 22  1  0  0  0  0
 28 29  1  0  0  0  0
 28 35  1  0  0  0  0
 28 36  1  0  0  0  0
 29 30  1  0  0  0  0
 29 34  1  1  0  0  0
 30 31  1  0  0  0  0
 30 32  1  0  0  0  0
 30 33  1  0  0  0  0
 37 38  2  0  0  0  0
 37 42  1  0  0  0  0
 38 39  1  0  0  0  0
 38 48  1  0  0  0  0
 39 40  2  0  0  0  0
 39 47  1  0  0  0  0
 40 41  1  0  0  0  0
 40 46  1  0  0  0  0
 41 42  2  0  0  0  0
 41 45  1  0  0  0  0
 42 43  1  0  0  0  0
 43 44  2  0  0  0  0
M  END
>  <MODEL>
       3

$$$$
