best_conformers_28.pdb
 OpenBabel01292518153D

 64 68  0  0  1  0  0  0  0  0999 V2000
   -6.2650   -1.9450  -29.4840 C   0  0  0  0  0  0  0  0  0  0  0  0
   -6.6580   -2.9440  -28.5070 N   0  0  0  0  0  0  0  0  0  0  0  0
   -6.1340   -2.8290  -27.2520 C   0  0  0  0  0  0  0  0  0  0  0  0
   -5.3710   -1.9290  -26.9320 O   0  0  0  0  0  0  0  0  0  0  0  0
   -6.5450   -3.9140  -26.2630 C   0  0  0  0  0  0  0  0  0  0  0  0
   -7.4930   -3.3950  -25.2940 N   0  0  0  0  0  0  0  0  0  0  0  0
   -7.0320   -2.4850  -24.2480 C   0  0  0  0  0  0  0  0  0  0  0  0
   -7.8450   -2.6880  -22.9450 C   0  0  2  0  0  0  0  0  0  0  0  0
   -7.4840   -1.5440  -22.0010 C   0  0  0  0  0  0  0  0  0  0  0  0
   -7.7870   -0.3700  -22.1110 O   0  0  0  0  0  0  0  0  0  0  0  0
   -6.7010   -2.0430  -20.9820 N   0  0  0  0  0  0  0  0  0  0  0  0
   -6.1380   -1.2020  -20.0030 C   0  0  0  0  0  0  0  0  0  0  0  0
   -6.5340   -1.3200  -18.6960 C   0  0  0  0  0  0  0  0  0  0  0  0
   -6.0580   -0.5560  -17.6830 N   0  0  0  0  0  0  0  0  0  0  0  0
   -5.1440    0.3350  -17.9980 C   0  0  0  0  0  0  0  0  0  0  0  0
   -4.6330    0.5370  -19.3120 C   0  0  0  0  0  0  0  0  0  0  0  0
   -3.6400    1.5110  -19.5920 C   0  0  0  0  0  0  0  0  0  0  0  0
   -3.1470    1.6580  -20.8590 C   0  0  0  0  0  0  0  0  0  0  0  0
   -3.6250    0.8440  -21.9120 C   0  0  0  0  0  0  0  0  0  0  0  0
   -4.5940   -0.0940  -21.6730 C   0  0  0  0  0  0  0  0  0  0  0  0
   -5.1320   -0.2580  -20.3620 C   0  0  0  0  0  0  0  0  0  0  0  0
   -4.9660   -0.7060  -22.4920 H   0  0  0  0  0  0  0  0  0  0  0  0
   -3.2270    0.9700  -22.9150 H   0  0  0  0  0  0  0  0  0  0  0  0
   -2.3860    2.4050  -21.0670 H   0  0  0  0  0  0  0  0  0  0  0  0
   -3.2880    2.1320  -18.7730 H   0  0  0  0  0  0  0  0  0  0  0  0
   -4.7580    0.9530  -17.1900 H   0  0  0  0  0  0  0  0  0  0  0  0
   -7.2950   -2.0550  -18.4350 H   0  0  0  0  0  0  0  0  0  0  0  0
   -6.3270   -3.4320  -21.1290 C   0  0  0  0  0  0  0  0  0  0  0  0
   -7.4080   -3.9310  -22.0950 C   0  0  2  0  0  0  0  0  0  0  0  0
   -7.0320   -5.1660  -22.9050 C   0  0  0  0  0  0  0  0  0  0  0  0
   -6.8090   -6.5770  -21.8320 S   0  0  0  0  0  0  0  0  0  0  0  0
   -8.0910   -6.8280  -21.1960 O   0  0  0  0  0  0  0  0  0  0  0  0
   -5.6050   -6.3720  -21.0420 O   0  0  0  0  0  0  0  0  0  0  0  0
   -6.5170   -7.8460  -22.8410 N   0  0  0  0  0  0  0  0  0  0  0  0
   -5.3050   -7.8610  -23.6470 C   0  0  0  0  0  0  0  0  0  0  0  0
   -5.3600   -7.2100  -24.5320 H   0  0  0  0  0  0  0  0  0  0  0  0
   -4.4560   -7.5570  -23.0290 H   0  0  0  0  0  0  0  0  0  0  0  0
   -5.1350   -8.8870  -23.9780 H   0  0  0  0  0  0  0  0  0  0  0  0
   -7.3580   -8.2120  -23.2680 H   0  0  0  0  0  0  0  0  0  0  0  0
   -7.8420   -5.4040  -23.6000 H   0  0  0  0  0  0  0  0  0  0  0  0
   -6.0970   -5.0060  -23.4510 H   0  0  0  0  0  0  0  0  0  0  0  0
   -8.2820   -4.1740  -21.4810 H   0  0  0  0  0  0  0  0  0  0  0  0
   -6.3410   -3.9490  -20.1660 H   0  0  0  0  0  0  0  0  0  0  0  0
   -5.3060   -3.5390  -21.5310 H   0  0  0  0  0  0  0  0  0  0  0  0
   -9.3290   -2.7450  -23.2770 C   0  0  0  0  0  0  0  0  0  0  0  0
  -10.2860   -2.5110  -22.2780 C   0  0  0  0  0  0  0  0  0  0  0  0
  -11.5950   -2.9250  -22.4700 C   0  0  0  0  0  0  0  0  0  0  0  0
  -12.7600   -2.8390  -21.1790 Cl  0  0  0  0  0  0  0  0  0  0  0  0
  -12.0100   -3.4600  -23.6870 C   0  0  0  0  0  0  0  0  0  0  0  0
  -11.1030   -3.5590  -24.7250 C   0  0  0  0  0  0  0  0  0  0  0  0
   -9.7700   -3.2020  -24.5270 C   0  0  0  0  0  0  0  0  0  0  0  0
   -8.8130   -3.4470  -25.6490 C   0  0  0  0  0  0  0  0  0  0  0  0
   -9.1800   -3.7460  -26.7820 O   0  0  0  0  0  0  0  0  0  0  0  0
  -11.4150   -3.9260  -25.7020 H   0  0  0  0  0  0  0  0  0  0  0  0
  -13.0320   -3.8070  -23.7960 H   0  0  0  0  0  0  0  0  0  0  0  0
  -10.0090   -2.0420  -21.3430 H   0  0  0  0  0  0  0  0  0  0  0  0
   -7.1500   -1.4320  -24.5550 H   0  0  0  0  0  0  0  0  0  0  0  0
   -5.9530   -2.6480  -24.0850 H   0  0  0  0  0  0  0  0  0  0  0  0
   -7.0110   -4.7600  -26.7770 H   0  0  0  0  0  0  0  0  0  0  0  0
   -5.6520   -4.2720  -25.7390 H   0  0  0  0  0  0  0  0  0  0  0  0
   -7.5880   -3.3410  -28.5780 H   0  0  0  0  0  0  0  0  0  0  0  0
   -6.5910   -0.9410  -29.1840 H   0  0  0  0  0  0  0  0  0  0  0  0
   -5.1730   -1.9290  -29.5460 H   0  0  0  0  0  0  0  0  0  0  0  0
   -6.6690   -2.1890  -30.4710 H   0  0  0  0  0  0  0  0  0  0  0  0
  1  2  1  0  0  0  0
  1 62  1  0  0  0  0
  1 63  1  0  0  0  0
  1 64  1  0  0  0  0
  2  3  1  0  0  0  0
  2 61  1  0  0  0  0
  3  4  2  0  0  0  0
  3  5  1  0  0  0  0
  5  6  1  0  0  0  0
  5 59  1  0  0  0  0
  5 60  1  0  0  0  0
  6  7  1  0  0  0  0
  6 52  1  0  0  0  0
  7  8  1  0  0  0  0
  7 57  1  0  0  0  0
  7 58  1  0  0  0  0
  8  9  1  1  0  0  0
  8 29  1  0  0  0  0
  8 45  1  0  0  0  0
  9 10  2  0  0  0  0
  9 11  1  0  0  0  0
 11 12  1  0  0  0  0
 11 28  1  0  0  0  0
 12 13  2  0  0  0  0
 12 21  1  0  0  0  0
 13 14  1  0  0  0  0
 13 27  1  0  0  0  0
 14 15  2  0  0  0  0
 15 16  1  0  0  0  0
 15 26  1  0  0  0  0
 16 17  2  0  0  0  0
 16 21  1  0  0  0  0
 17 18  1  0  0  0  0
 17 25  1  0  0  0  0
 18 19  2  0  0  0  0
 18 24  1  0  0  0  0
 19 20  1  0  0  0  0
 19 23  1  0  0  0  0
 20 21  2  0  0  0  0
 20 22  1  0  0  0  0
 28 29  1  0  0  0  0
 28 43  1  0  0  0  0
 28 44  1  0  0  0  0
 29 30  1  0  0  0  0
 29 42  1  1  0  0  0
 30 31  1  0  0  0  0
 30 40  1  0  0  0  0
 30 41  1  0  0  0  0
 31 32  2  0  0  0  0
 31 33  2  0  0  0  0
 31 34  1  0  0  0  0
 34 35  1  0  0  0  0
 34 39  1  0  0  0  0
 35 36  1  0  0  0  0
 35 37  1  0  0  0  0
 35 38  1  0  0  0  0
 45 46  2  0  0  0  0
 45 51  1  0  0  0  0
 46 47  1  0  0  0  0
 46 56  1  0  0  0  0
 47 48  1  0  0  0  0
 47 49  2  0  0  0  0
 49 50  1  0  0  0  0
 49 55  1  0  0  0  0
 50 51  2  0  0  0  0
 50 54  1  0  0  0  0
 51 52  1  0  0  0  0
 52 53  2  0  0  0  0
M  END
>  <MODEL>
       1

$$$$
