best_conformers_62.pdb
 OpenBabel01292518153D

 44 47  0  0  0  0  0  0  0  0999 V2000
   -4.9390   -3.6520  -20.6530 O   0  0  0  0  0  0  0  0  0  0  0  0
   -5.8000   -3.2870  -21.4360 C   0  0  0  0  0  0  0  0  0  0  0  0
   -6.7500   -2.1280  -21.0340 C   0  0  0  0  0  0  0  0  0  0  0  0
   -6.1390   -1.2100  -20.0010 C   0  0  0  0  0  0  0  0  0  0  0  0
   -6.5060   -1.2810  -18.6790 C   0  0  0  0  0  0  0  0  0  0  0  0
   -6.0140   -0.5110  -17.6710 N   0  0  0  0  0  0  0  0  0  0  0  0
   -5.0950    0.3700  -17.9980 C   0  0  0  0  0  0  0  0  0  0  0  0
   -4.6040    0.5540  -19.3220 C   0  0  0  0  0  0  0  0  0  0  0  0
   -3.6060    1.5170  -19.6260 C   0  0  0  0  0  0  0  0  0  0  0  0
   -3.1520    1.6680  -20.9120 C   0  0  0  0  0  0  0  0  0  0  0  0
   -3.6770    0.8610  -21.9440 C   0  0  0  0  0  0  0  0  0  0  0  0
   -4.6450   -0.0770  -21.6740 C   0  0  0  0  0  0  0  0  0  0  0  0
   -5.1370   -0.2560  -20.3530 C   0  0  0  0  0  0  0  0  0  0  0  0
   -5.0330   -0.6880  -22.4830 H   0  0  0  0  0  0  0  0  0  0  0  0
   -3.3140    0.9880  -22.9590 H   0  0  0  0  0  0  0  0  0  0  0  0
   -2.3910    2.4080  -21.1460 H   0  0  0  0  0  0  0  0  0  0  0  0
   -3.2080    2.1370  -18.8260 H   0  0  0  0  0  0  0  0  0  0  0  0
   -4.6860    0.9930  -17.2000 H   0  0  0  0  0  0  0  0  0  0  0  0
   -7.2620   -2.0000  -18.3690 H   0  0  0  0  0  0  0  0  0  0  0  0
   -7.0950   -1.5390  -21.8940 H   0  0  0  0  0  0  0  0  0  0  0  0
   -7.6520   -2.5850  -20.5990 H   0  0  0  0  0  0  0  0  0  0  0  0
   -5.9900   -3.9150  -22.6490 N   0  0  0  0  0  0  0  0  0  0  0  0
   -5.3460   -5.2120  -22.8880 C   0  0  0  0  0  0  0  0  0  0  0  0
   -6.3080   -6.1650  -23.5900 C   0  0  0  0  0  0  0  0  0  0  0  0
   -6.8540   -5.6010  -24.9150 C   0  0  0  0  0  0  0  0  0  0  0  0
   -8.3270   -5.9210  -25.0910 C   0  0  0  0  0  0  0  0  0  0  0  0
   -8.8740   -6.1050  -26.4710 C   0  0  0  0  0  0  0  0  0  0  0  0
   -8.7170   -7.2870  -25.5640 C   0  0  0  0  0  0  0  0  0  0  0  0
   -9.6160   -7.7480  -25.1760 H   0  0  0  0  0  0  0  0  0  0  0  0
   -7.9070   -7.9730  -25.7790 H   0  0  0  0  0  0  0  0  0  0  0  0
   -8.1700   -6.0140  -27.2890 H   0  0  0  0  0  0  0  0  0  0  0  0
   -9.8790   -5.7730  -26.6960 H   0  0  0  0  0  0  0  0  0  0  0  0
   -8.9970   -5.4600  -24.3740 H   0  0  0  0  0  0  0  0  0  0  0  0
   -6.5670   -4.1010  -25.0550 C   0  0  0  0  0  0  0  0  0  0  0  0
   -6.7560   -3.3320  -23.7510 C   0  0  0  0  0  0  0  0  0  0  0  0
   -6.4420   -2.2940  -23.9260 H   0  0  0  0  0  0  0  0  0  0  0  0
   -7.8240   -3.3030  -23.4990 H   0  0  0  0  0  0  0  0  0  0  0  0
   -5.5470   -3.9470  -25.4280 H   0  0  0  0  0  0  0  0  0  0  0  0
   -7.2200   -3.6820  -25.8290 H   0  0  0  0  0  0  0  0  0  0  0  0
   -6.3310   -6.1010  -25.7380 H   0  0  0  0  0  0  0  0  0  0  0  0
   -7.1360   -6.3800  -22.9080 H   0  0  0  0  0  0  0  0  0  0  0  0
   -5.8120   -7.1270  -23.7660 H   0  0  0  0  0  0  0  0  0  0  0  0
   -5.0350   -5.6310  -21.9310 H   0  0  0  0  0  0  0  0  0  0  0  0
   -4.4350   -5.0920  -23.4880 H   0  0  0  0  0  0  0  0  0  0  0  0
  1  2  2  0  0  0  0
  2  3  1  0  0  0  0
  2 22  1  0  0  0  0
  3  4  1  0  0  0  0
  3 20  1  0  0  0  0
  3 21  1  0  0  0  0
  4  5  2  0  0  0  0
  4 13  1  0  0  0  0
  5  6  1  0  0  0  0
  5 19  1  0  0  0  0
  6  7  2  0  0  0  0
  7  8  1  0  0  0  0
  7 18  1  0  0  0  0
  8  9  2  0  0  0  0
  8 13  1  0  0  0  0
  9 10  1  0  0  0  0
  9 17  1  0  0  0  0
 10 11  2  0  0  0  0
 10 16  1  0  0  0  0
 11 12  1  0  0  0  0
 11 15  1  0  0  0  0
 12 13  2  0  0  0  0
 12 14  1  0  0  0  0
 22 23  1  0  0  0  0
 22 35  1  0  0  0  0
 23 24  1  0  0  0  0
 23 43  1  0  0  0  0
 23 44  1  0  0  0  0
 24 25  1  0  0  0  0
 24 41  1  0  0  0  0
 24 42  1  0  0  0  0
 25 26  1  0  0  0  0
 25 34  1  0  0  0  0
 25 40  1  0  0  0  0
 26 27  1  0  0  0  0
 26 28  1  0  0  0  0
 26 33  1  0  0  0  0
 27 28  1  0  0  0  0
 27 31  1  0  0  0  0
 27 32  1  0  0  0  0
 28 29  1  0  0  0  0
 28 30  1  0  0  0  0
 34 35  1  0  0  0  0
 34 38  1  0  0  0  0
 34 39  1  0  0  0  0
 35 36  1  0  0  0  0
 35 37  1  0  0  0  0
M  END
>  <MODEL>
       1

$$$$
best_conformers_62.pdb
 OpenBabel01292518153D

 44 47  0  0  0  0  0  0  0  0999 V2000
   -4.9370   -3.6530  -20.6460 O   0  0  0  0  0  0  0  0  0  0  0  0
   -5.7940   -3.2870  -21.4330 C   0  0  0  0  0  0  0  0  0  0  0  0
   -6.7470   -2.1310  -21.0340 C   0  0  0  0  0  0  0  0  0  0  0  0
   -6.1390   -1.2100  -20.0010 C   0  0  0  0  0  0  0  0  0  0  0  0
   -6.5060   -1.2810  -18.6790 C   0  0  0  0  0  0  0  0  0  0  0  0
   -6.0140   -0.5110  -17.6710 N   0  0  0  0  0  0  0  0  0  0  0  0
   -5.0950    0.3700  -17.9980 C   0  0  0  0  0  0  0  0  0  0  0  0
   -4.6040    0.5540  -19.3220 C   0  0  0  0  0  0  0  0  0  0  0  0
   -3.6060    1.5170  -19.6260 C   0  0  0  0  0  0  0  0  0  0  0  0
   -3.1520    1.6680  -20.9110 C   0  0  0  0  0  0  0  0  0  0  0  0
   -3.6770    0.8610  -21.9430 C   0  0  0  0  0  0  0  0  0  0  0  0
   -4.6450   -0.0770  -21.6740 C   0  0  0  0  0  0  0  0  0  0  0  0
   -5.1370   -0.2560  -20.3530 C   0  0  0  0  0  0  0  0  0  0  0  0
   -5.0330   -0.6880  -22.4830 H   0  0  0  0  0  0  0  0  0  0  0  0
   -3.3140    0.9880  -22.9590 H   0  0  0  0  0  0  0  0  0  0  0  0
   -2.3900    2.4080  -21.1460 H   0  0  0  0  0  0  0  0  0  0  0  0
   -3.2080    2.1370  -18.8260 H   0  0  0  0  0  0  0  0  0  0  0  0
   -4.6860    0.9930  -17.2000 H   0  0  0  0  0  0  0  0  0  0  0  0
   -7.2620   -2.0000  -18.3690 H   0  0  0  0  0  0  0  0  0  0  0  0
   -7.6470   -2.5900  -20.5980 H   0  0  0  0  0  0  0  0  0  0  0  0
   -7.0940   -1.5440  -21.8940 H   0  0  0  0  0  0  0  0  0  0  0  0
   -5.9730   -3.9110  -22.6490 N   0  0  0  0  0  0  0  0  0  0  0  0
   -6.7380   -3.3290  -23.7530 C   0  0  0  0  0  0  0  0  0  0  0  0
   -6.5360   -4.0920  -25.0590 C   0  0  0  0  0  0  0  0  0  0  0  0
   -6.8120   -5.5940  -24.9290 C   0  0  0  0  0  0  0  0  0  0  0  0
   -8.2810   -5.9250  -25.1170 C   0  0  0  0  0  0  0  0  0  0  0  0
   -8.6560   -7.2920  -25.5980 C   0  0  0  0  0  0  0  0  0  0  0  0
   -8.8150   -6.1090  -26.5030 C   0  0  0  0  0  0  0  0  0  0  0  0
   -9.8220   -5.7840  -26.7340 H   0  0  0  0  0  0  0  0  0  0  0  0
   -8.1060   -6.0090  -27.3140 H   0  0  0  0  0  0  0  0  0  0  0  0
   -7.8400   -7.9710  -25.8090 H   0  0  0  0  0  0  0  0  0  0  0  0
   -9.5550   -7.7620  -25.2190 H   0  0  0  0  0  0  0  0  0  0  0  0
   -8.9610   -5.4720  -24.4040 H   0  0  0  0  0  0  0  0  0  0  0  0
   -6.2730   -6.1600  -23.6010 C   0  0  0  0  0  0  0  0  0  0  0  0
   -5.3210   -5.2040  -22.8900 C   0  0  0  0  0  0  0  0  0  0  0  0
   -5.0130   -5.6250  -21.9330 H   0  0  0  0  0  0  0  0  0  0  0  0
   -4.4080   -5.0780  -23.4850 H   0  0  0  0  0  0  0  0  0  0  0  0
   -5.7710   -7.1180  -23.7770 H   0  0  0  0  0  0  0  0  0  0  0  0
   -7.1040   -6.3810  -22.9260 H   0  0  0  0  0  0  0  0  0  0  0  0
   -6.2790   -6.0860  -25.7500 H   0  0  0  0  0  0  0  0  0  0  0  0
   -7.1870   -3.6740  -25.8360 H   0  0  0  0  0  0  0  0  0  0  0  0
   -5.5150   -3.9280  -25.4260 H   0  0  0  0  0  0  0  0  0  0  0  0
   -7.8080   -3.3100  -23.5070 H   0  0  0  0  0  0  0  0  0  0  0  0
   -6.4300   -2.2890  -23.9220 H   0  0  0  0  0  0  0  0  0  0  0  0
  1  2  2  0  0  0  0
  2  3  1  0  0  0  0
  2 22  1  0  0  0  0
  3  4  1  0  0  0  0
  3 20  1  0  0  0  0
  3 21  1  0  0  0  0
  4  5  2  0  0  0  0
  4 13  1  0  0  0  0
  5  6  1  0  0  0  0
  5 19  1  0  0  0  0
  6  7  2  0  0  0  0
  7  8  1  0  0  0  0
  7 18  1  0  0  0  0
  8  9  2  0  0  0  0
  8 13  1  0  0  0  0
  9 10  1  0  0  0  0
  9 17  1  0  0  0  0
 10 11  2  0  0  0  0
 10 16  1  0  0  0  0
 11 12  1  0  0  0  0
 11 15  1  0  0  0  0
 12 13  2  0  0  0  0
 12 14  1  0  0  0  0
 22 23  1  0  0  0  0
 22 35  1  0  0  0  0
 23 24  1  0  0  0  0
 23 43  1  0  0  0  0
 23 44  1  0  0  0  0
 24 25  1  0  0  0  0
 24 41  1  0  0  0  0
 24 42  1  0  0  0  0
 25 26  1  0  0  0  0
 25 34  1  0  0  0  0
 25 40  1  0  0  0  0
 26 27  1  0  0  0  0
 26 28  1  0  0  0  0
 26 33  1  0  0  0  0
 27 28  1  0  0  0  0
 27 31  1  0  0  0  0
 27 32  1  0  0  0  0
 28 29  1  0  0  0  0
 28 30  1  0  0  0  0
 34 35  1  0  0  0  0
 34 38  1  0  0  0  0
 34 39  1  0  0  0  0
 35 36  1  0  0  0  0
 35 37  1  0  0  0  0
M  END
>  <MODEL>
       2

$$$$
best_conformers_62.pdb
 OpenBabel01292518153D

 44 47  0  0  0  0  0  0  0  0999 V2000
   -4.9530   -3.6690  -20.6190 O   0  0  0  0  0  0  0  0  0  0  0  0
   -5.8000   -3.2930  -21.4100 C   0  0  0  0  0  0  0  0  0  0  0  0
   -6.7410   -2.1210  -21.0320 C   0  0  0  0  0  0  0  0  0  0  0  0
   -6.1320   -1.2060  -19.9990 C   0  0  0  0  0  0  0  0  0  0  0  0
   -6.5040   -1.2800  -18.6840 C   0  0  0  0  0  0  0  0  0  0  0  0
   -6.0130   -0.5120  -17.6740 N   0  0  0  0  0  0  0  0  0  0  0  0
   -5.0960    0.3690  -17.9990 C   0  0  0  0  0  0  0  0  0  0  0  0
   -4.6030    0.5530  -19.3190 C   0  0  0  0  0  0  0  0  0  0  0  0
   -3.6070    1.5150  -19.6260 C   0  0  0  0  0  0  0  0  0  0  0  0
   -3.1530    1.6650  -20.9080 C   0  0  0  0  0  0  0  0  0  0  0  0
   -3.6760    0.8590  -21.9420 C   0  0  0  0  0  0  0  0  0  0  0  0
   -4.6410   -0.0780  -21.6750 C   0  0  0  0  0  0  0  0  0  0  0  0
   -5.1330   -0.2560  -20.3530 C   0  0  0  0  0  0  0  0  0  0  0  0
   -5.0330   -0.6880  -22.4860 H   0  0  0  0  0  0  0  0  0  0  0  0
   -3.3140    0.9880  -22.9590 H   0  0  0  0  0  0  0  0  0  0  0  0
   -2.3920    2.4080  -21.1430 H   0  0  0  0  0  0  0  0  0  0  0  0
   -3.2150    2.1340  -18.8230 H   0  0  0  0  0  0  0  0  0  0  0  0
   -4.6910    0.9900  -17.1970 H   0  0  0  0  0  0  0  0  0  0  0  0
   -7.2620   -2.0000  -18.3680 H   0  0  0  0  0  0  0  0  0  0  0  0
   -7.6450   -2.5810  -20.6000 H   0  0  0  0  0  0  0  0  0  0  0  0
   -7.0910   -1.5600  -21.9070 H   0  0  0  0  0  0  0  0  0  0  0  0
   -6.0110   -3.9610  -22.6110 N   0  0  0  0  0  0  0  0  0  0  0  0
   -5.9970   -5.4250  -22.5800 C   0  0  0  0  0  0  0  0  0  0  0  0
   -5.4080   -6.0210  -23.8500 C   0  0  0  0  0  0  0  0  0  0  0  0
   -6.0980   -5.4680  -25.0930 C   0  0  0  0  0  0  0  0  0  0  0  0
   -5.5300   -6.0650  -26.3660 C   0  0  0  0  0  0  0  0  0  0  0  0
   -6.0350   -7.3990  -26.8430 C   0  0  0  0  0  0  0  0  0  0  0  0
   -6.3940   -6.1400  -27.5930 C   0  0  0  0  0  0  0  0  0  0  0  0
   -7.4150   -5.7680  -27.5010 H   0  0  0  0  0  0  0  0  0  0  0  0
   -5.9510   -5.9770  -28.5760 H   0  0  0  0  0  0  0  0  0  0  0  0
   -5.3460   -8.1030  -27.3090 H   0  0  0  0  0  0  0  0  0  0  0  0
   -6.8160   -7.8740  -26.2480 H   0  0  0  0  0  0  0  0  0  0  0  0
   -4.4710   -5.8610  -26.5290 H   0  0  0  0  0  0  0  0  0  0  0  0
   -6.0090   -3.9470  -25.0800 C   0  0  0  0  0  0  0  0  0  0  0  0
   -6.5920   -3.3490  -23.7990 C   0  0  0  0  0  0  0  0  0  0  0  0
   -7.6890   -3.4580  -23.8060 H   0  0  0  0  0  0  0  0  0  0  0  0
   -6.3680   -2.2790  -23.7920 H   0  0  0  0  0  0  0  0  0  0  0  0
   -4.9590   -3.6470  -25.1860 H   0  0  0  0  0  0  0  0  0  0  0  0
   -6.5410   -3.5370  -25.9450 H   0  0  0  0  0  0  0  0  0  0  0  0
   -7.1620   -5.7530  -25.0560 H   0  0  0  0  0  0  0  0  0  0  0  0
   -5.5090   -7.1120  -23.8230 H   0  0  0  0  0  0  0  0  0  0  0  0
   -4.3350   -5.8000  -23.9000 H   0  0  0  0  0  0  0  0  0  0  0  0
   -5.4160   -5.7300  -21.7080 H   0  0  0  0  0  0  0  0  0  0  0  0
   -7.0250   -5.8060  -22.4400 H   0  0  0  0  0  0  0  0  0  0  0  0
  1  2  2  0  0  0  0
  2  3  1  0  0  0  0
  2 22  1  0  0  0  0
  3  4  1  0  0  0  0
  3 20  1  0  0  0  0
  3 21  1  0  0  0  0
  4  5  2  0  0  0  0
  4 13  1  0  0  0  0
  5  6  1  0  0  0  0
  5 19  1  0  0  0  0
  6  7  2  0  0  0  0
  7  8  1  0  0  0  0
  7 18  1  0  0  0  0
  8  9  2  0  0  0  0
  8 13  1  0  0  0  0
  9 10  1  0  0  0  0
  9 17  1  0  0  0  0
 10 11  2  0  0  0  0
 10 16  1  0  0  0  0
 11 12  1  0  0  0  0
 11 15  1  0  0  0  0
 12 13  2  0  0  0  0
 12 14  1  0  0  0  0
 22 23  1  0  0  0  0
 22 35  1  0  0  0  0
 23 24  1  0  0  0  0
 23 43  1  0  0  0  0
 23 44  1  0  0  0  0
 24 25  1  0  0  0  0
 24 41  1  0  0  0  0
 24 42  1  0  0  0  0
 25 26  1  0  0  0  0
 25 34  1  0  0  0  0
 25 40  1  0  0  0  0
 26 27  1  0  0  0  0
 26 28  1  0  0  0  0
 26 33  1  0  0  0  0
 27 28  1  0  0  0  0
 27 31  1  0  0  0  0
 27 32  1  0  0  0  0
 28 29  1  0  0  0  0
 28 30  1  0  0  0  0
 34 35  1  0  0  0  0
 34 38  1  0  0  0  0
 34 39  1  0  0  0  0
 35 36  1  0  0  0  0
 35 37  1  0  0  0  0
M  END
>  <MODEL>
       3

$$$$
best_conformers_62.pdb
 OpenBabel01292518153D

 44 47  0  0  0  0  0  0  0  0999 V2000
   -8.3710   -0.3180  -21.3710 O   0  0  0  0  0  0  0  0  0  0  0  0
   -7.8930   -1.3570  -21.7950 C   0  0  0  0  0  0  0  0  0  0  0  0
   -6.7850   -2.0960  -21.0400 C   0  0  0  0  0  0  0  0  0  0  0  0
   -6.1430   -1.2350  -20.0090 C   0  0  0  0  0  0  0  0  0  0  0  0
   -6.5580   -1.3040  -18.7060 C   0  0  0  0  0  0  0  0  0  0  0  0
   -6.0790   -0.5450  -17.6880 N   0  0  0  0  0  0  0  0  0  0  0  0
   -5.1510    0.3290  -18.0010 C   0  0  0  0  0  0  0  0  0  0  0  0
   -4.6400    0.5290  -19.3160 C   0  0  0  0  0  0  0  0  0  0  0  0
   -3.6490    1.5010  -19.6040 C   0  0  0  0  0  0  0  0  0  0  0  0
   -3.1910    1.6730  -20.8830 C   0  0  0  0  0  0  0  0  0  0  0  0
   -3.7080    0.8810  -21.9320 C   0  0  0  0  0  0  0  0  0  0  0  0
   -4.6670   -0.0640  -21.6800 C   0  0  0  0  0  0  0  0  0  0  0  0
   -5.1560   -0.2720  -20.3610 C   0  0  0  0  0  0  0  0  0  0  0  0
   -5.0610   -0.6490  -22.5060 H   0  0  0  0  0  0  0  0  0  0  0  0
   -3.3390    1.0320  -22.9440 H   0  0  0  0  0  0  0  0  0  0  0  0
   -2.4360    2.4220  -21.1000 H   0  0  0  0  0  0  0  0  0  0  0  0
   -3.2680    2.1160  -18.7920 H   0  0  0  0  0  0  0  0  0  0  0  0
   -4.7580    0.9410  -17.1900 H   0  0  0  0  0  0  0  0  0  0  0  0
   -7.3360   -2.0180  -18.4350 H   0  0  0  0  0  0  0  0  0  0  0  0
   -6.0330   -2.4830  -21.7320 H   0  0  0  0  0  0  0  0  0  0  0  0
   -7.2530   -2.9630  -20.5520 H   0  0  0  0  0  0  0  0  0  0  0  0
   -8.3320   -1.9510  -22.9410 N   0  0  0  0  0  0  0  0  0  0  0  0
   -9.5350   -1.4010  -23.5670 C   0  0  0  0  0  0  0  0  0  0  0  0
  -10.4570   -2.5530  -23.9360 C   0  0  0  0  0  0  0  0  0  0  0  0
   -9.7770   -3.4980  -24.9520 C   0  0  0  0  0  0  0  0  0  0  0  0
  -10.2200   -4.9350  -24.7340 C   0  0  0  0  0  0  0  0  0  0  0  0
  -10.2320   -5.9010  -25.8730 C   0  0  0  0  0  0  0  0  0  0  0  0
  -11.5210   -5.3440  -25.3490 C   0  0  0  0  0  0  0  0  0  0  0  0
  -12.1970   -5.9920  -24.8060 H   0  0  0  0  0  0  0  0  0  0  0  0
  -12.0010   -4.5830  -25.9570 H   0  0  0  0  0  0  0  0  0  0  0  0
  -10.0020   -6.9380  -25.6710 H   0  0  0  0  0  0  0  0  0  0  0  0
   -9.8610   -5.5460  -26.8280 H   0  0  0  0  0  0  0  0  0  0  0  0
   -9.9270   -5.3510  -23.7650 H   0  0  0  0  0  0  0  0  0  0  0  0
   -8.2460   -3.3850  -24.9200 C   0  0  0  0  0  0  0  0  0  0  0  0
   -7.7380   -3.1700  -23.5030 C   0  0  0  0  0  0  0  0  0  0  0  0
   -7.9720   -4.0570  -22.8880 H   0  0  0  0  0  0  0  0  0  0  0  0
   -6.6480   -3.0700  -23.5520 H   0  0  0  0  0  0  0  0  0  0  0  0
   -7.8850   -2.5660  -25.5560 H   0  0  0  0  0  0  0  0  0  0  0  0
   -7.8160   -4.2990  -25.3440 H   0  0  0  0  0  0  0  0  0  0  0  0
  -10.0870   -3.1840  -25.9560 H   0  0  0  0  0  0  0  0  0  0  0  0
  -11.3960   -2.1520  -24.3310 H   0  0  0  0  0  0  0  0  0  0  0  0
  -10.7140   -3.1130  -23.0240 H   0  0  0  0  0  0  0  0  0  0  0  0
   -9.2580   -0.8080  -24.4540 H   0  0  0  0  0  0  0  0  0  0  0  0
  -10.0150   -0.7210  -22.8600 H   0  0  0  0  0  0  0  0  0  0  0  0
  1  2  2  0  0  0  0
  2  3  1  0  0  0  0
  2 22  1  0  0  0  0
  3  4  1  0  0  0  0
  3 20  1  0  0  0  0
  3 21  1  0  0  0  0
  4  5  2  0  0  0  0
  4 13  1  0  0  0  0
  5  6  1  0  0  0  0
  5 19  1  0  0  0  0
  6  7  2  0  0  0  0
  7  8  1  0  0  0  0
  7 18  1  0  0  0  0
  8  9  2  0  0  0  0
  8 13  1  0  0  0  0
  9 10  1  0  0  0  0
  9 17  1  0  0  0  0
 10 11  2  0  0  0  0
 10 16  1  0  0  0  0
 11 12  1  0  0  0  0
 11 15  1  0  0  0  0
 12 13  2  0  0  0  0
 12 14  1  0  0  0  0
 22 23  1  0  0  0  0
 22 35  1  0  0  0  0
 23 24  1  0  0  0  0
 23 43  1  0  0  0  0
 23 44  1  0  0  0  0
 24 25  1  0  0  0  0
 24 41  1  0  0  0  0
 24 42  1  0  0  0  0
 25 26  1  0  0  0  0
 25 34  1  0  0  0  0
 25 40  1  0  0  0  0
 26 27  1  0  0  0  0
 26 28  1  0  0  0  0
 26 33  1  0  0  0  0
 27 28  1  0  0  0  0
 27 31  1  0  0  0  0
 27 32  1  0  0  0  0
 28 29  1  0  0  0  0
 28 30  1  0  0  0  0
 34 35  1  0  0  0  0
 34 38  1  0  0  0  0
 34 39  1  0  0  0  0
 35 36  1  0  0  0  0
 35 37  1  0  0  0  0
M  END
>  <MODEL>
       4

$$$$
best_conformers_62.pdb
 OpenBabel01292518153D

 44 47  0  0  0  0  0  0  0  0999 V2000
   -4.7050   -3.4130  -21.0150 O   0  0  0  0  0  0  0  0  0  0  0  0
   -5.8970   -3.4130  -21.2750 C   0  0  0  0  0  0  0  0  0  0  0  0
   -6.7660   -2.1580  -21.0110 C   0  0  0  0  0  0  0  0  0  0  0  0
   -6.1380   -1.2200  -20.0030 C   0  0  0  0  0  0  0  0  0  0  0  0
   -6.5110   -1.2850  -18.6860 C   0  0  0  0  0  0  0  0  0  0  0  0
   -6.0160   -0.5150  -17.6790 N   0  0  0  0  0  0  0  0  0  0  0  0
   -5.0970    0.3650  -18.0030 C   0  0  0  0  0  0  0  0  0  0  0  0
   -4.6040    0.5460  -19.3230 C   0  0  0  0  0  0  0  0  0  0  0  0
   -3.6090    1.5100  -19.6260 C   0  0  0  0  0  0  0  0  0  0  0  0
   -3.1500    1.6610  -20.9040 C   0  0  0  0  0  0  0  0  0  0  0  0
   -3.6690    0.8480  -21.9410 C   0  0  0  0  0  0  0  0  0  0  0  0
   -4.6330   -0.0930  -21.6720 C   0  0  0  0  0  0  0  0  0  0  0  0
   -5.1320   -0.2690  -20.3560 C   0  0  0  0  0  0  0  0  0  0  0  0
   -5.0130   -0.7190  -22.4740 H   0  0  0  0  0  0  0  0  0  0  0  0
   -3.3030    0.9780  -22.9530 H   0  0  0  0  0  0  0  0  0  0  0  0
   -2.3920    2.4030  -21.1350 H   0  0  0  0  0  0  0  0  0  0  0  0
   -3.2260    2.1310  -18.8180 H   0  0  0  0  0  0  0  0  0  0  0  0
   -4.6970    0.9840  -17.1980 H   0  0  0  0  0  0  0  0  0  0  0  0
   -7.2670   -1.9990  -18.3640 H   0  0  0  0  0  0  0  0  0  0  0  0
   -6.9670   -1.6350  -21.9590 H   0  0  0  0  0  0  0  0  0  0  0  0
   -7.7440   -2.4860  -20.6330 H   0  0  0  0  0  0  0  0  0  0  0  0
   -6.5060   -4.5400  -21.7580 N   0  0  0  0  0  0  0  0  0  0  0  0
   -7.8170   -4.5890  -22.4020 C   0  0  0  0  0  0  0  0  0  0  0  0
   -7.8080   -5.5130  -23.6160 C   0  0  0  0  0  0  0  0  0  0  0  0
   -7.3220   -6.9430  -23.2890 C   0  0  0  0  0  0  0  0  0  0  0  0
   -6.5200   -7.4890  -24.4760 C   0  0  0  0  0  0  0  0  0  0  0  0
   -5.3440   -6.7820  -25.0990 C   0  0  0  0  0  0  0  0  0  0  0  0
   -5.1400   -8.0980  -24.3760 C   0  0  0  0  0  0  0  0  0  0  0  0
   -4.6220   -8.0750  -23.4180 H   0  0  0  0  0  0  0  0  0  0  0  0
   -4.8930   -8.9960  -24.9450 H   0  0  0  0  0  0  0  0  0  0  0  0
   -4.9900   -5.8600  -24.6360 H   0  0  0  0  0  0  0  0  0  0  0  0
   -5.2830   -6.7790  -26.1910 H   0  0  0  0  0  0  0  0  0  0  0  0
   -7.1980   -7.8880  -25.2360 H   0  0  0  0  0  0  0  0  0  0  0  0
   -6.6320   -6.9910  -21.9200 C   0  0  0  0  0  0  0  0  0  0  0  0
   -5.7520   -5.7880  -21.6190 C   0  0  0  0  0  0  0  0  0  0  0  0
   -4.8520   -5.7630  -22.2510 H   0  0  0  0  0  0  0  0  0  0  0  0
   -5.3940   -5.8540  -20.5860 H   0  0  0  0  0  0  0  0  0  0  0  0
   -7.4080   -7.0580  -21.1470 H   0  0  0  0  0  0  0  0  0  0  0  0
   -6.0430   -7.9090  -21.8350 H   0  0  0  0  0  0  0  0  0  0  0  0
   -8.2070   -7.5870  -23.1960 H   0  0  0  0  0  0  0  0  0  0  0  0
   -8.8190   -5.5590  -24.0310 H   0  0  0  0  0  0  0  0  0  0  0  0
   -7.1650   -5.0830  -24.3900 H   0  0  0  0  0  0  0  0  0  0  0  0
   -8.5950   -4.9370  -21.7090 H   0  0  0  0  0  0  0  0  0  0  0  0
   -8.0780   -3.5790  -22.7170 H   0  0  0  0  0  0  0  0  0  0  0  0
  1  2  2  0  0  0  0
  2  3  1  0  0  0  0
  2 22  1  0  0  0  0
  3  4  1  0  0  0  0
  3 20  1  0  0  0  0
  3 21  1  0  0  0  0
  4  5  2  0  0  0  0
  4 13  1  0  0  0  0
  5  6  1  0  0  0  0
  5 19  1  0  0  0  0
  6  7  2  0  0  0  0
  7  8  1  0  0  0  0
  7 18  1  0  0  0  0
  8  9  2  0  0  0  0
  8 13  1  0  0  0  0
  9 10  1  0  0  0  0
  9 17  1  0  0  0  0
 10 11  2  0  0  0  0
 10 16  1  0  0  0  0
 11 12  1  0  0  0  0
 11 15  1  0  0  0  0
 12 13  2  0  0  0  0
 12 14  1  0  0  0  0
 22 23  1  0  0  0  0
 22 35  1  0  0  0  0
 23 24  1  0  0  0  0
 23 43  1  0  0  0  0
 23 44  1  0  0  0  0
 24 25  1  0  0  0  0
 24 41  1  0  0  0  0
 24 42  1  0  0  0  0
 25 26  1  0  0  0  0
 25 34  1  0  0  0  0
 25 40  1  0  0  0  0
 26 27  1  0  0  0  0
 26 28  1  0  0  0  0
 26 33  1  0  0  0  0
 27 28  1  0  0  0  0
 27 31  1  0  0  0  0
 27 32  1  0  0  0  0
 28 29  1  0  0  0  0
 28 30  1  0  0  0  0
 34 35  1  0  0  0  0
 34 38  1  0  0  0  0
 34 39  1  0  0  0  0
 35 36  1  0  0  0  0
 35 37  1  0  0  0  0
M  END
>  <MODEL>
       5

$$$$
best_conformers_62.pdb
 OpenBabel01292518153D

 44 47  0  0  0  0  0  0  0  0999 V2000
   -8.3810   -0.3740  -21.4370 O   0  0  0  0  0  0  0  0  0  0  0  0
   -7.8240   -1.3540  -21.9030 C   0  0  0  0  0  0  0  0  0  0  0  0
   -6.7760   -2.1030  -21.0410 C   0  0  0  0  0  0  0  0  0  0  0  0
   -6.1370   -1.2110  -20.0010 C   0  0  0  0  0  0  0  0  0  0  0  0
   -6.5130   -1.2740  -18.6810 C   0  0  0  0  0  0  0  0  0  0  0  0
   -6.0170   -0.5080  -17.6720 N   0  0  0  0  0  0  0  0  0  0  0  0
   -5.0940    0.3700  -17.9980 C   0  0  0  0  0  0  0  0  0  0  0  0
   -4.6060    0.5550  -19.3220 C   0  0  0  0  0  0  0  0  0  0  0  0
   -3.6110    1.5220  -19.6270 C   0  0  0  0  0  0  0  0  0  0  0  0
   -3.1690    1.6840  -20.9150 C   0  0  0  0  0  0  0  0  0  0  0  0
   -3.7040    0.8870  -21.9500 C   0  0  0  0  0  0  0  0  0  0  0  0
   -4.6650   -0.0580  -21.6790 C   0  0  0  0  0  0  0  0  0  0  0  0
   -5.1430   -0.2510  -20.3540 C   0  0  0  0  0  0  0  0  0  0  0  0
   -5.0670   -0.6550  -22.4910 H   0  0  0  0  0  0  0  0  0  0  0  0
   -3.3530    1.0250  -22.9680 H   0  0  0  0  0  0  0  0  0  0  0  0
   -2.4120    2.4280  -21.1510 H   0  0  0  0  0  0  0  0  0  0  0  0
   -3.2110    2.1400  -18.8270 H   0  0  0  0  0  0  0  0  0  0  0  0
   -4.6860    0.9920  -17.2000 H   0  0  0  0  0  0  0  0  0  0  0  0
   -7.2720   -1.9900  -18.3710 H   0  0  0  0  0  0  0  0  0  0  0  0
   -7.3100   -2.9110  -20.5200 H   0  0  0  0  0  0  0  0  0  0  0  0
   -5.9970   -2.5900  -21.6410 H   0  0  0  0  0  0  0  0  0  0  0  0
   -8.1410   -1.8430  -23.1520 N   0  0  0  0  0  0  0  0  0  0  0  0
   -9.3540   -1.3600  -23.8230 C   0  0  0  0  0  0  0  0  0  0  0  0
  -10.0990   -2.5160  -24.4830 C   0  0  0  0  0  0  0  0  0  0  0  0
   -9.2280   -3.3010  -25.4820 C   0  0  0  0  0  0  0  0  0  0  0  0
   -9.4760   -4.7950  -25.3830 C   0  0  0  0  0  0  0  0  0  0  0  0
   -9.3190   -5.6430  -26.6060 C   0  0  0  0  0  0  0  0  0  0  0  0
  -10.6840   -5.3730  -26.0510 C   0  0  0  0  0  0  0  0  0  0  0  0
  -11.3090   -4.6800  -26.5950 H   0  0  0  0  0  0  0  0  0  0  0  0
  -11.2130   -6.1940  -25.5840 H   0  0  0  0  0  0  0  0  0  0  0  0
   -9.0470   -5.1310  -27.5200 H   0  0  0  0  0  0  0  0  0  0  0  0
   -8.9290   -6.6480  -26.5120 H   0  0  0  0  0  0  0  0  0  0  0  0
   -9.1900   -5.2590  -24.4450 H   0  0  0  0  0  0  0  0  0  0  0  0
   -7.7430   -2.9510  -25.3360 C   0  0  0  0  0  0  0  0  0  0  0  0
   -7.3030   -2.7950  -23.8830 C   0  0  0  0  0  0  0  0  0  0  0  0
   -7.3220   -3.7760  -23.3910 H   0  0  0  0  0  0  0  0  0  0  0  0
   -6.2580   -2.4580  -23.8830 H   0  0  0  0  0  0  0  0  0  0  0  0
   -7.1420   -3.7290  -25.8210 H   0  0  0  0  0  0  0  0  0  0  0  0
   -7.5170   -2.0310  -25.8890 H   0  0  0  0  0  0  0  0  0  0  0  0
   -9.5240   -3.0070  -26.4950 H   0  0  0  0  0  0  0  0  0  0  0  0
  -10.4570   -3.1880  -23.6950 H   0  0  0  0  0  0  0  0  0  0  0  0
  -11.0000   -2.1410  -24.9820 H   0  0  0  0  0  0  0  0  0  0  0  0
   -9.1050   -0.5940  -24.5690 H   0  0  0  0  0  0  0  0  0  0  0  0
   -9.9950   -0.8770  -23.0830 H   0  0  0  0  0  0  0  0  0  0  0  0
  1  2  2  0  0  0  0
  2  3  1  0  0  0  0
  2 22  1  0  0  0  0
  3  4  1  0  0  0  0
  3 20  1  0  0  0  0
  3 21  1  0  0  0  0
  4  5  2  0  0  0  0
  4 13  1  0  0  0  0
  5  6  1  0  0  0  0
  5 19  1  0  0  0  0
  6  7  2  0  0  0  0
  7  8  1  0  0  0  0
  7 18  1  0  0  0  0
  8  9  2  0  0  0  0
  8 13  1  0  0  0  0
  9 10  1  0  0  0  0
  9 17  1  0  0  0  0
 10 11  2  0  0  0  0
 10 16  1  0  0  0  0
 11 12  1  0  0  0  0
 11 15  1  0  0  0  0
 12 13  2  0  0  0  0
 12 14  1  0  0  0  0
 22 23  1  0  0  0  0
 22 35  1  0  0  0  0
 23 24  1  0  0  0  0
 23 43  1  0  0  0  0
 23 44  1  0  0  0  0
 24 25  1  0  0  0  0
 24 41  1  0  0  0  0
 24 42  1  0  0  0  0
 25 26  1  0  0  0  0
 25 34  1  0  0  0  0
 25 40  1  0  0  0  0
 26 27  1  0  0  0  0
 26 28  1  0  0  0  0
 26 33  1  0  0  0  0
 27 28  1  0  0  0  0
 27 31  1  0  0  0  0
 27 32  1  0  0  0  0
 28 29  1  0  0  0  0
 28 30  1  0  0  0  0
 34 35  1  0  0  0  0
 34 38  1  0  0  0  0
 34 39  1  0  0  0  0
 35 36  1  0  0  0  0
 35 37  1  0  0  0  0
M  END
>  <MODEL>
       6

$$$$
best_conformers_62.pdb
 OpenBabel01292518153D

 44 47  0  0  0  0  0  0  0  0999 V2000
   -8.3820   -0.3720  -21.4340 O   0  0  0  0  0  0  0  0  0  0  0  0
   -7.8260   -1.3510  -21.9020 C   0  0  0  0  0  0  0  0  0  0  0  0
   -6.7770   -2.1010  -21.0420 C   0  0  0  0  0  0  0  0  0  0  0  0
   -6.1370   -1.2110  -20.0010 C   0  0  0  0  0  0  0  0  0  0  0  0
   -6.5130   -1.2740  -18.6810 C   0  0  0  0  0  0  0  0  0  0  0  0
   -6.0170   -0.5080  -17.6710 N   0  0  0  0  0  0  0  0  0  0  0  0
   -5.0940    0.3700  -17.9980 C   0  0  0  0  0  0  0  0  0  0  0  0
   -4.6060    0.5550  -19.3220 C   0  0  0  0  0  0  0  0  0  0  0  0
   -3.6110    1.5220  -19.6270 C   0  0  0  0  0  0  0  0  0  0  0  0
   -3.1690    1.6840  -20.9150 C   0  0  0  0  0  0  0  0  0  0  0  0
   -3.7040    0.8870  -21.9500 C   0  0  0  0  0  0  0  0  0  0  0  0
   -4.6650   -0.0580  -21.6790 C   0  0  0  0  0  0  0  0  0  0  0  0
   -5.1430   -0.2510  -20.3540 C   0  0  0  0  0  0  0  0  0  0  0  0
   -5.0670   -0.6550  -22.4910 H   0  0  0  0  0  0  0  0  0  0  0  0
   -3.3530    1.0250  -22.9680 H   0  0  0  0  0  0  0  0  0  0  0  0
   -2.4120    2.4280  -21.1510 H   0  0  0  0  0  0  0  0  0  0  0  0
   -3.2110    2.1390  -18.8270 H   0  0  0  0  0  0  0  0  0  0  0  0
   -4.6860    0.9920  -17.2000 H   0  0  0  0  0  0  0  0  0  0  0  0
   -7.2720   -1.9900  -18.3710 H   0  0  0  0  0  0  0  0  0  0  0  0
   -5.9990   -2.5890  -21.6420 H   0  0  0  0  0  0  0  0  0  0  0  0
   -7.3110   -2.9100  -20.5210 H   0  0  0  0  0  0  0  0  0  0  0  0
   -8.1430   -1.8380  -23.1520 N   0  0  0  0  0  0  0  0  0  0  0  0
   -7.3050   -2.7890  -23.8850 C   0  0  0  0  0  0  0  0  0  0  0  0
   -7.7430   -2.9410  -25.3380 C   0  0  0  0  0  0  0  0  0  0  0  0
   -9.2290   -3.2890  -25.4860 C   0  0  0  0  0  0  0  0  0  0  0  0
   -9.4780   -4.7830  -25.3930 C   0  0  0  0  0  0  0  0  0  0  0  0
  -10.6860   -5.3580  -26.0640 C   0  0  0  0  0  0  0  0  0  0  0  0
   -9.3210   -5.6270  -26.6190 C   0  0  0  0  0  0  0  0  0  0  0  0
   -9.0480   -5.1120  -27.5310 H   0  0  0  0  0  0  0  0  0  0  0  0
   -8.9320   -6.6330  -26.5280 H   0  0  0  0  0  0  0  0  0  0  0  0
  -11.3100   -4.6620  -26.6050 H   0  0  0  0  0  0  0  0  0  0  0  0
  -11.2160   -6.1790  -25.5990 H   0  0  0  0  0  0  0  0  0  0  0  0
   -9.1930   -5.2500  -24.4570 H   0  0  0  0  0  0  0  0  0  0  0  0
  -10.1000   -2.5070  -24.4850 C   0  0  0  0  0  0  0  0  0  0  0  0
   -9.3550   -1.3520  -23.8220 C   0  0  0  0  0  0  0  0  0  0  0  0
   -9.1050   -0.5840  -24.5670 H   0  0  0  0  0  0  0  0  0  0  0  0
   -9.9950   -0.8710  -23.0820 H   0  0  0  0  0  0  0  0  0  0  0  0
  -11.0000   -2.1300  -24.9840 H   0  0  0  0  0  0  0  0  0  0  0  0
  -10.4580   -3.1800  -23.7000 H   0  0  0  0  0  0  0  0  0  0  0  0
   -9.5240   -2.9910  -26.4990 H   0  0  0  0  0  0  0  0  0  0  0  0
   -7.1430   -3.7180  -25.8250 H   0  0  0  0  0  0  0  0  0  0  0  0
   -7.5160   -2.0190  -25.8890 H   0  0  0  0  0  0  0  0  0  0  0  0
   -7.3250   -3.7710  -23.3950 H   0  0  0  0  0  0  0  0  0  0  0  0
   -6.2600   -2.4530  -23.8830 H   0  0  0  0  0  0  0  0  0  0  0  0
  1  2  2  0  0  0  0
  2  3  1  0  0  0  0
  2 22  1  0  0  0  0
  3  4  1  0  0  0  0
  3 20  1  0  0  0  0
  3 21  1  0  0  0  0
  4  5  2  0  0  0  0
  4 13  1  0  0  0  0
  5  6  1  0  0  0  0
  5 19  1  0  0  0  0
  6  7  2  0  0  0  0
  7  8  1  0  0  0  0
  7 18  1  0  0  0  0
  8  9  2  0  0  0  0
  8 13  1  0  0  0  0
  9 10  1  0  0  0  0
  9 17  1  0  0  0  0
 10 11  2  0  0  0  0
 10 16  1  0  0  0  0
 11 12  1  0  0  0  0
 11 15  1  0  0  0  0
 12 13  2  0  0  0  0
 12 14  1  0  0  0  0
 22 23  1  0  0  0  0
 22 35  1  0  0  0  0
 23 24  1  0  0  0  0
 23 43  1  0  0  0  0
 23 44  1  0  0  0  0
 24 25  1  0  0  0  0
 24 41  1  0  0  0  0
 24 42  1  0  0  0  0
 25 26  1  0  0  0  0
 25 34  1  0  0  0  0
 25 40  1  0  0  0  0
 26 27  1  0  0  0  0
 26 28  1  0  0  0  0
 26 33  1  0  0  0  0
 27 28  1  0  0  0  0
 27 31  1  0  0  0  0
 27 32  1  0  0  0  0
 28 29  1  0  0  0  0
 28 30  1  0  0  0  0
 34 35  1  0  0  0  0
 34 38  1  0  0  0  0
 34 39  1  0  0  0  0
 35 36  1  0  0  0  0
 35 37  1  0  0  0  0
M  END
>  <MODEL>
       7

$$$$
best_conformers_62.pdb
 OpenBabel01292518153D

 44 47  0  0  0  0  0  0  0  0999 V2000
   -8.6280   -0.5780  -21.2860 O   0  0  0  0  0  0  0  0  0  0  0  0
   -7.8150   -1.2770  -21.8660 C   0  0  0  0  0  0  0  0  0  0  0  0
   -6.7920   -2.0880  -21.0440 C   0  0  0  0  0  0  0  0  0  0  0  0
   -6.1300   -1.2180  -19.9970 C   0  0  0  0  0  0  0  0  0  0  0  0
   -6.5130   -1.2790  -18.6830 C   0  0  0  0  0  0  0  0  0  0  0  0
   -6.0210   -0.5070  -17.6750 N   0  0  0  0  0  0  0  0  0  0  0  0
   -5.0980    0.3680  -17.9980 C   0  0  0  0  0  0  0  0  0  0  0  0
   -4.6030    0.5500  -19.3210 C   0  0  0  0  0  0  0  0  0  0  0  0
   -3.6150    1.5200  -19.6270 C   0  0  0  0  0  0  0  0  0  0  0  0
   -3.1710    1.6840  -20.9090 C   0  0  0  0  0  0  0  0  0  0  0  0
   -3.7030    0.8820  -21.9500 C   0  0  0  0  0  0  0  0  0  0  0  0
   -4.6600   -0.0630  -21.6780 C   0  0  0  0  0  0  0  0  0  0  0  0
   -5.1340   -0.2580  -20.3540 C   0  0  0  0  0  0  0  0  0  0  0  0
   -5.0620   -0.6630  -22.4930 H   0  0  0  0  0  0  0  0  0  0  0  0
   -3.3520    1.0240  -22.9660 H   0  0  0  0  0  0  0  0  0  0  0  0
   -2.4210    2.4310  -21.1430 H   0  0  0  0  0  0  0  0  0  0  0  0
   -3.2270    2.1360  -18.8190 H   0  0  0  0  0  0  0  0  0  0  0  0
   -4.6940    0.9850  -17.1940 H   0  0  0  0  0  0  0  0  0  0  0  0
   -7.2740   -1.9910  -18.3660 H   0  0  0  0  0  0  0  0  0  0  0  0
   -6.0450   -2.5610  -21.6930 H   0  0  0  0  0  0  0  0  0  0  0  0
   -7.3440   -2.8880  -20.5370 H   0  0  0  0  0  0  0  0  0  0  0  0
   -7.7640   -1.3410  -23.2460 N   0  0  0  0  0  0  0  0  0  0  0  0
   -7.2420   -2.4740  -23.9990 C   0  0  0  0  0  0  0  0  0  0  0  0
   -8.0340   -2.6850  -25.2890 C   0  0  0  0  0  0  0  0  0  0  0  0
   -8.0830   -1.4090  -26.1300 C   0  0  0  0  0  0  0  0  0  0  0  0
   -8.7770   -1.5630  -27.4760 C   0  0  0  0  0  0  0  0  0  0  0  0
   -8.1740   -2.4020  -28.5660 C   0  0  0  0  0  0  0  0  0  0  0  0
   -9.4880   -2.8180  -27.9410 C   0  0  0  0  0  0  0  0  0  0  0  0
   -9.4930   -3.6850  -27.2750 H   0  0  0  0  0  0  0  0  0  0  0  0
  -10.4120   -2.7430  -28.5150 H   0  0  0  0  0  0  0  0  0  0  0  0
   -7.2650   -2.9630  -28.3440 H   0  0  0  0  0  0  0  0  0  0  0  0
   -8.1910   -1.9900  -29.5750 H   0  0  0  0  0  0  0  0  0  0  0  0
   -9.1310   -0.6000  -27.8530 H   0  0  0  0  0  0  0  0  0  0  0  0
   -8.6970   -0.2920  -25.2790 C   0  0  0  0  0  0  0  0  0  0  0  0
   -7.9060   -0.0930  -23.9920 C   0  0  0  0  0  0  0  0  0  0  0  0
   -6.9040    0.3120  -24.2370 H   0  0  0  0  0  0  0  0  0  0  0  0
   -8.3960    0.6090  -23.3150 H   0  0  0  0  0  0  0  0  0  0  0  0
   -9.7430   -0.5310  -25.0420 H   0  0  0  0  0  0  0  0  0  0  0  0
   -8.7050    0.6500  -25.8440 H   0  0  0  0  0  0  0  0  0  0  0  0
   -7.0440   -1.1080  -26.3650 H   0  0  0  0  0  0  0  0  0  0  0  0
   -7.5750   -3.4940  -25.8690 H   0  0  0  0  0  0  0  0  0  0  0  0
   -9.0600   -3.0030  -25.0490 H   0  0  0  0  0  0  0  0  0  0  0  0
   -6.1740   -2.3350  -24.2550 H   0  0  0  0  0  0  0  0  0  0  0  0
   -7.3280   -3.3630  -23.3700 H   0  0  0  0  0  0  0  0  0  0  0  0
  1  2  2  0  0  0  0
  2  3  1  0  0  0  0
  2 22  1  0  0  0  0
  3  4  1  0  0  0  0
  3 20  1  0  0  0  0
  3 21  1  0  0  0  0
  4  5  2  0  0  0  0
  4 13  1  0  0  0  0
  5  6  1  0  0  0  0
  5 19  1  0  0  0  0
  6  7  2  0  0  0  0
  7  8  1  0  0  0  0
  7 18  1  0  0  0  0
  8  9  2  0  0  0  0
  8 13  1  0  0  0  0
  9 10  1  0  0  0  0
  9 17  1  0  0  0  0
 10 11  2  0  0  0  0
 10 16  1  0  0  0  0
 11 12  1  0  0  0  0
 11 15  1  0  0  0  0
 12 13  2  0  0  0  0
 12 14  1  0  0  0  0
 22 23  1  0  0  0  0
 22 35  1  0  0  0  0
 23 24  1  0  0  0  0
 23 43  1  0  0  0  0
 23 44  1  0  0  0  0
 24 25  1  0  0  0  0
 24 41  1  0  0  0  0
 24 42  1  0  0  0  0
 25 26  1  0  0  0  0
 25 34  1  0  0  0  0
 25 40  1  0  0  0  0
 26 27  1  0  0  0  0
 26 28  1  0  0  0  0
 26 33  1  0  0  0  0
 27 28  1  0  0  0  0
 27 31  1  0  0  0  0
 27 32  1  0  0  0  0
 28 29  1  0  0  0  0
 28 30  1  0  0  0  0
 34 35  1  0  0  0  0
 34 38  1  0  0  0  0
 34 39  1  0  0  0  0
 35 36  1  0  0  0  0
 35 37  1  0  0  0  0
M  END
>  <MODEL>
       8

$$$$
best_conformers_62.pdb
 OpenBabel01292518153D

 44 47  0  0  0  0  0  0  0  0999 V2000
   -8.6680   -0.6530  -21.2660 O   0  0  0  0  0  0  0  0  0  0  0  0
   -7.8220   -1.2970  -21.8540 C   0  0  0  0  0  0  0  0  0  0  0  0
   -6.7860   -2.0980  -21.0340 C   0  0  0  0  0  0  0  0  0  0  0  0
   -6.1310   -1.2150  -19.9920 C   0  0  0  0  0  0  0  0  0  0  0  0
   -6.5120   -1.2740  -18.6750 C   0  0  0  0  0  0  0  0  0  0  0  0
   -6.0160   -0.5060  -17.6680 N   0  0  0  0  0  0  0  0  0  0  0  0
   -5.0930    0.3700  -17.9970 C   0  0  0  0  0  0  0  0  0  0  0  0
   -4.6050    0.5550  -19.3230 C   0  0  0  0  0  0  0  0  0  0  0  0
   -3.6130    1.5250  -19.6270 C   0  0  0  0  0  0  0  0  0  0  0  0
   -3.1700    1.6870  -20.9150 C   0  0  0  0  0  0  0  0  0  0  0  0
   -3.7030    0.8860  -21.9490 C   0  0  0  0  0  0  0  0  0  0  0  0
   -4.6630   -0.0610  -21.6790 C   0  0  0  0  0  0  0  0  0  0  0  0
   -5.1390   -0.2530  -20.3530 C   0  0  0  0  0  0  0  0  0  0  0  0
   -5.0580   -0.6640  -22.4930 H   0  0  0  0  0  0  0  0  0  0  0  0
   -3.3490    1.0250  -22.9670 H   0  0  0  0  0  0  0  0  0  0  0  0
   -2.4150    2.4330  -21.1510 H   0  0  0  0  0  0  0  0  0  0  0  0
   -3.2140    2.1430  -18.8270 H   0  0  0  0  0  0  0  0  0  0  0  0
   -4.6850    0.9930  -17.2000 H   0  0  0  0  0  0  0  0  0  0  0  0
   -7.2720   -1.9900  -18.3680 H   0  0  0  0  0  0  0  0  0  0  0  0
   -7.3270   -2.9030  -20.5230 H   0  0  0  0  0  0  0  0  0  0  0  0
   -6.0190   -2.5650  -21.6660 H   0  0  0  0  0  0  0  0  0  0  0  0
   -7.7380   -1.3040  -23.2410 N   0  0  0  0  0  0  0  0  0  0  0  0
   -7.8620   -0.0270  -23.9530 C   0  0  0  0  0  0  0  0  0  0  0  0
   -8.6070   -0.1850  -25.2700 C   0  0  0  0  0  0  0  0  0  0  0  0
   -8.0090   -1.2950  -26.1310 C   0  0  0  0  0  0  0  0  0  0  0  0
   -6.6660   -0.9180  -26.7250 C   0  0  0  0  0  0  0  0  0  0  0  0
   -6.6310   -0.0980  -27.9760 C   0  0  0  0  0  0  0  0  0  0  0  0
   -6.2440   -1.5430  -28.0180 C   0  0  0  0  0  0  0  0  0  0  0  0
   -6.9420   -2.2290  -28.4800 H   0  0  0  0  0  0  0  0  0  0  0  0
   -5.2000   -1.7800  -28.1790 H   0  0  0  0  0  0  0  0  0  0  0  0
   -5.8490    0.6380  -28.1100 H   0  0  0  0  0  0  0  0  0  0  0  0
   -7.5850    0.1710  -28.4100 H   0  0  0  0  0  0  0  0  0  0  0  0
   -5.8590   -0.7230  -26.0280 H   0  0  0  0  0  0  0  0  0  0  0  0
   -7.9510   -2.5940  -25.3310 C   0  0  0  0  0  0  0  0  0  0  0  0
   -7.2050   -2.4240  -24.0090 C   0  0  0  0  0  0  0  0  0  0  0  0
   -7.3240   -3.3390  -23.4240 H   0  0  0  0  0  0  0  0  0  0  0  0
   -6.1270   -2.3090  -24.2090 H   0  0  0  0  0  0  0  0  0  0  0  0
   -8.9710   -2.9430  -25.1290 H   0  0  0  0  0  0  0  0  0  0  0  0
   -7.4730   -3.3780  -25.9310 H   0  0  0  0  0  0  0  0  0  0  0  0
   -8.6770   -1.4540  -26.9860 H   0  0  0  0  0  0  0  0  0  0  0  0
   -9.6590   -0.4070  -25.0620 H   0  0  0  0  0  0  0  0  0  0  0  0
   -8.5940    0.7620  -25.8250 H   0  0  0  0  0  0  0  0  0  0  0  0
   -6.8670    0.4110  -24.1400 H   0  0  0  0  0  0  0  0  0  0  0  0
   -8.3940    0.6720  -23.3050 H   0  0  0  0  0  0  0  0  0  0  0  0
  1  2  2  0  0  0  0
  2  3  1  0  0  0  0
  2 22  1  0  0  0  0
  3  4  1  0  0  0  0
  3 20  1  0  0  0  0
  3 21  1  0  0  0  0
  4  5  2  0  0  0  0
  4 13  1  0  0  0  0
  5  6  1  0  0  0  0
  5 19  1  0  0  0  0
  6  7  2  0  0  0  0
  7  8  1  0  0  0  0
  7 18  1  0  0  0  0
  8  9  2  0  0  0  0
  8 13  1  0  0  0  0
  9 10  1  0  0  0  0
  9 17  1  0  0  0  0
 10 11  2  0  0  0  0
 10 16  1  0  0  0  0
 11 12  1  0  0  0  0
 11 15  1  0  0  0  0
 12 13  2  0  0  0  0
 12 14  1  0  0  0  0
 22 23  1  0  0  0  0
 22 35  1  0  0  0  0
 23 24  1  0  0  0  0
 23 43  1  0  0  0  0
 23 44  1  0  0  0  0
 24 25  1  0  0  0  0
 24 41  1  0  0  0  0
 24 42  1  0  0  0  0
 25 26  1  0  0  0  0
 25 34  1  0  0  0  0
 25 40  1  0  0  0  0
 26 27  1  0  0  0  0
 26 28  1  0  0  0  0
 26 33  1  0  0  0  0
 27 28  1  0  0  0  0
 27 31  1  0  0  0  0
 27 32  1  0  0  0  0
 28 29  1  0  0  0  0
 28 30  1  0  0  0  0
 34 35  1  0  0  0  0
 34 38  1  0  0  0  0
 34 39  1  0  0  0  0
 35 36  1  0  0  0  0
 35 37  1  0  0  0  0
M  END
>  <MODEL>
       9

$$$$
best_conformers_62.pdb
 OpenBabel01292518153D

 44 47  0  0  0  0  0  0  0  0999 V2000
   -8.7940   -0.7750  -21.1890 O   0  0  0  0  0  0  0  0  0  0  0  0
   -7.8580   -1.2660  -21.7860 C   0  0  0  0  0  0  0  0  0  0  0  0
   -6.8010   -2.0920  -21.0320 C   0  0  0  0  0  0  0  0  0  0  0  0
   -6.1310   -1.2140  -19.9920 C   0  0  0  0  0  0  0  0  0  0  0  0
   -6.5110   -1.2760  -18.6790 C   0  0  0  0  0  0  0  0  0  0  0  0
   -6.0160   -0.5060  -17.6720 N   0  0  0  0  0  0  0  0  0  0  0  0
   -5.0950    0.3690  -18.0000 C   0  0  0  0  0  0  0  0  0  0  0  0
   -4.6060    0.5550  -19.3200 C   0  0  0  0  0  0  0  0  0  0  0  0
   -3.6170    1.5240  -19.6300 C   0  0  0  0  0  0  0  0  0  0  0  0
   -3.1760    1.6890  -20.9140 C   0  0  0  0  0  0  0  0  0  0  0  0
   -3.7070    0.8870  -21.9500 C   0  0  0  0  0  0  0  0  0  0  0  0
   -4.6620   -0.0600  -21.6770 C   0  0  0  0  0  0  0  0  0  0  0  0
   -5.1410   -0.2540  -20.3550 C   0  0  0  0  0  0  0  0  0  0  0  0
   -5.0540   -0.6680  -22.4870 H   0  0  0  0  0  0  0  0  0  0  0  0
   -3.3520    1.0270  -22.9690 H   0  0  0  0  0  0  0  0  0  0  0  0
   -2.4220    2.4390  -21.1500 H   0  0  0  0  0  0  0  0  0  0  0  0
   -3.2210    2.1420  -18.8260 H   0  0  0  0  0  0  0  0  0  0  0  0
   -4.6880    0.9910  -17.1980 H   0  0  0  0  0  0  0  0  0  0  0  0
   -7.2730   -1.9900  -18.3650 H   0  0  0  0  0  0  0  0  0  0  0  0
   -6.0590   -2.5230  -21.7170 H   0  0  0  0  0  0  0  0  0  0  0  0
   -7.3170   -2.9150  -20.5220 H   0  0  0  0  0  0  0  0  0  0  0  0
   -7.6240   -1.0300  -23.1430 N   0  0  0  0  0  0  0  0  0  0  0  0
   -8.0340    0.2580  -23.7000 C   0  0  0  0  0  0  0  0  0  0  0  0
   -7.0500    0.6940  -24.7850 C   0  0  0  0  0  0  0  0  0  0  0  0
   -6.8760   -0.3830  -25.8510 C   0  0  0  0  0  0  0  0  0  0  0  0
   -5.8870    0.0330  -26.9200 C   0  0  0  0  0  0  0  0  0  0  0  0
   -6.3460    0.9070  -28.0510 C   0  0  0  0  0  0  0  0  0  0  0  0
   -6.0130   -0.5390  -28.3030 C   0  0  0  0  0  0  0  0  0  0  0  0
   -5.1160   -0.7710  -28.8750 H   0  0  0  0  0  0  0  0  0  0  0  0
   -6.8400   -1.2250  -28.4780 H   0  0  0  0  0  0  0  0  0  0  0  0
   -5.6780    1.6680  -28.4490 H   0  0  0  0  0  0  0  0  0  0  0  0
   -7.3970    1.1920  -28.0560 H   0  0  0  0  0  0  0  0  0  0  0  0
   -4.8730    0.2030  -26.5610 H   0  0  0  0  0  0  0  0  0  0  0  0
   -6.4860   -1.7110  -25.2100 C   0  0  0  0  0  0  0  0  0  0  0  0
   -7.4710   -2.1090  -24.1180 C   0  0  0  0  0  0  0  0  0  0  0  0
   -8.4410   -2.3640  -24.5810 H   0  0  0  0  0  0  0  0  0  0  0  0
   -7.1320   -3.0070  -23.5990 H   0  0  0  0  0  0  0  0  0  0  0  0
   -5.4840   -1.6220  -24.7720 H   0  0  0  0  0  0  0  0  0  0  0  0
   -6.4350   -2.4970  -25.9720 H   0  0  0  0  0  0  0  0  0  0  0  0
   -7.8460   -0.5190  -26.3520 H   0  0  0  0  0  0  0  0  0  0  0  0
   -7.3910    1.6280  -25.2460 H   0  0  0  0  0  0  0  0  0  0  0  0
   -6.0760    0.9100  -24.3230 H   0  0  0  0  0  0  0  0  0  0  0  0
   -9.0580    0.2230  -24.1070 H   0  0  0  0  0  0  0  0  0  0  0  0
   -8.0450    0.9860  -22.8860 H   0  0  0  0  0  0  0  0  0  0  0  0
  1  2  2  0  0  0  0
  2  3  1  0  0  0  0
  2 22  1  0  0  0  0
  3  4  1  0  0  0  0
  3 20  1  0  0  0  0
  3 21  1  0  0  0  0
  4  5  2  0  0  0  0
  4 13  1  0  0  0  0
  5  6  1  0  0  0  0
  5 19  1  0  0  0  0
  6  7  2  0  0  0  0
  7  8  1  0  0  0  0
  7 18  1  0  0  0  0
  8  9  2  0  0  0  0
  8 13  1  0  0  0  0
  9 10  1  0  0  0  0
  9 17  1  0  0  0  0
 10 11  2  0  0  0  0
 10 16  1  0  0  0  0
 11 12  1  0  0  0  0
 11 15  1  0  0  0  0
 12 13  2  0  0  0  0
 12 14  1  0  0  0  0
 22 23  1  0  0  0  0
 22 35  1  0  0  0  0
 23 24  1  0  0  0  0
 23 43  1  0  0  0  0
 23 44  1  0  0  0  0
 24 25  1  0  0  0  0
 24 41  1  0  0  0  0
 24 42  1  0  0  0  0
 25 26  1  0  0  0  0
 25 34  1  0  0  0  0
 25 40  1  0  0  0  0
 26 27  1  0  0  0  0
 26 28  1  0  0  0  0
 26 33  1  0  0  0  0
 27 28  1  0  0  0  0
 27 31  1  0  0  0  0
 27 32  1  0  0  0  0
 28 29  1  0  0  0  0
 28 30  1  0  0  0  0
 34 35  1  0  0  0  0
 34 38  1  0  0  0  0
 34 39  1  0  0  0  0
 35 36  1  0  0  0  0
 35 37  1  0  0  0  0
M  END
>  <MODEL>
      10

$$$$
best_conformers_62.pdb
 OpenBabel01292518153D

 44 47  0  0  0  0  0  0  0  0999 V2000
   -8.7940   -0.7750  -21.1890 O   0  0  0  0  0  0  0  0  0  0  0  0
   -7.8580   -1.2660  -21.7850 C   0  0  0  0  0  0  0  0  0  0  0  0
   -6.8010   -2.0920  -21.0320 C   0  0  0  0  0  0  0  0  0  0  0  0
   -6.1310   -1.2140  -19.9920 C   0  0  0  0  0  0  0  0  0  0  0  0
   -6.5110   -1.2760  -18.6790 C   0  0  0  0  0  0  0  0  0  0  0  0
   -6.0160   -0.5060  -17.6720 N   0  0  0  0  0  0  0  0  0  0  0  0
   -5.0950    0.3690  -18.0000 C   0  0  0  0  0  0  0  0  0  0  0  0
   -4.6060    0.5550  -19.3200 C   0  0  0  0  0  0  0  0  0  0  0  0
   -3.6170    1.5240  -19.6300 C   0  0  0  0  0  0  0  0  0  0  0  0
   -3.1760    1.6890  -20.9140 C   0  0  0  0  0  0  0  0  0  0  0  0
   -3.7070    0.8870  -21.9500 C   0  0  0  0  0  0  0  0  0  0  0  0
   -4.6620   -0.0600  -21.6770 C   0  0  0  0  0  0  0  0  0  0  0  0
   -5.1410   -0.2540  -20.3550 C   0  0  0  0  0  0  0  0  0  0  0  0
   -5.0540   -0.6680  -22.4870 H   0  0  0  0  0  0  0  0  0  0  0  0
   -3.3520    1.0270  -22.9690 H   0  0  0  0  0  0  0  0  0  0  0  0
   -2.4220    2.4390  -21.1500 H   0  0  0  0  0  0  0  0  0  0  0  0
   -3.2210    2.1420  -18.8260 H   0  0  0  0  0  0  0  0  0  0  0  0
   -4.6880    0.9910  -17.1980 H   0  0  0  0  0  0  0  0  0  0  0  0
   -7.2730   -1.9900  -18.3650 H   0  0  0  0  0  0  0  0  0  0  0  0
   -7.3170   -2.9150  -20.5220 H   0  0  0  0  0  0  0  0  0  0  0  0
   -6.0590   -2.5220  -21.7180 H   0  0  0  0  0  0  0  0  0  0  0  0
   -7.6240   -1.0300  -23.1430 N   0  0  0  0  0  0  0  0  0  0  0  0
   -7.4710   -2.1080  -24.1180 C   0  0  0  0  0  0  0  0  0  0  0  0
   -6.4870   -1.7100  -25.2100 C   0  0  0  0  0  0  0  0  0  0  0  0
   -6.8770   -0.3820  -25.8510 C   0  0  0  0  0  0  0  0  0  0  0  0
   -5.8890    0.0340  -26.9200 C   0  0  0  0  0  0  0  0  0  0  0  0
   -6.3480    0.9090  -28.0510 C   0  0  0  0  0  0  0  0  0  0  0  0
   -6.0150   -0.5380  -28.3030 C   0  0  0  0  0  0  0  0  0  0  0  0
   -5.1180   -0.7700  -28.8750 H   0  0  0  0  0  0  0  0  0  0  0  0
   -6.8420   -1.2240  -28.4780 H   0  0  0  0  0  0  0  0  0  0  0  0
   -5.6790    1.6700  -28.4490 H   0  0  0  0  0  0  0  0  0  0  0  0
   -7.3980    1.1930  -28.0560 H   0  0  0  0  0  0  0  0  0  0  0  0
   -4.8740    0.2040  -26.5620 H   0  0  0  0  0  0  0  0  0  0  0  0
   -7.0510    0.6940  -24.7840 C   0  0  0  0  0  0  0  0  0  0  0  0
   -8.0350    0.2580  -23.7000 C   0  0  0  0  0  0  0  0  0  0  0  0
   -8.0450    0.9860  -22.8850 H   0  0  0  0  0  0  0  0  0  0  0  0
   -9.0590    0.2230  -24.1060 H   0  0  0  0  0  0  0  0  0  0  0  0
   -6.0770    0.9100  -24.3230 H   0  0  0  0  0  0  0  0  0  0  0  0
   -7.3920    1.6280  -25.2450 H   0  0  0  0  0  0  0  0  0  0  0  0
   -7.8470   -0.5180  -26.3520 H   0  0  0  0  0  0  0  0  0  0  0  0
   -5.4850   -1.6210  -24.7720 H   0  0  0  0  0  0  0  0  0  0  0  0
   -6.4360   -2.4970  -25.9730 H   0  0  0  0  0  0  0  0  0  0  0  0
   -8.4420   -2.3640  -24.5810 H   0  0  0  0  0  0  0  0  0  0  0  0
   -7.1320   -3.0070  -23.6000 H   0  0  0  0  0  0  0  0  0  0  0  0
  1  2  2  0  0  0  0
  2  3  1  0  0  0  0
  2 22  1  0  0  0  0
  3  4  1  0  0  0  0
  3 20  1  0  0  0  0
  3 21  1  0  0  0  0
  4  5  2  0  0  0  0
  4 13  1  0  0  0  0
  5  6  1  0  0  0  0
  5 19  1  0  0  0  0
  6  7  2  0  0  0  0
  7  8  1  0  0  0  0
  7 18  1  0  0  0  0
  8  9  2  0  0  0  0
  8 13  1  0  0  0  0
  9 10  1  0  0  0  0
  9 17  1  0  0  0  0
 10 11  2  0  0  0  0
 10 16  1  0  0  0  0
 11 12  1  0  0  0  0
 11 15  1  0  0  0  0
 12 13  2  0  0  0  0
 12 14  1  0  0  0  0
 22 23  1  0  0  0  0
 22 35  1  0  0  0  0
 23 24  1  0  0  0  0
 23 43  1  0  0  0  0
 23 44  1  0  0  0  0
 24 25  1  0  0  0  0
 24 41  1  0  0  0  0
 24 42  1  0  0  0  0
 25 26  1  0  0  0  0
 25 34  1  0  0  0  0
 25 40  1  0  0  0  0
 26 27  1  0  0  0  0
 26 28  1  0  0  0  0
 26 33  1  0  0  0  0
 27 28  1  0  0  0  0
 27 31  1  0  0  0  0
 27 32  1  0  0  0  0
 28 29  1  0  0  0  0
 28 30  1  0  0  0  0
 34 35  1  0  0  0  0
 34 38  1  0  0  0  0
 34 39  1  0  0  0  0
 35 36  1  0  0  0  0
 35 37  1  0  0  0  0
M  END
>  <MODEL>
      11

$$$$
best_conformers_62.pdb
 OpenBabel01292518153D

 44 47  0  0  0  0  0  0  0  0999 V2000
   -8.7890   -0.7780  -21.1950 O   0  0  0  0  0  0  0  0  0  0  0  0
   -7.8570   -1.2730  -21.7920 C   0  0  0  0  0  0  0  0  0  0  0  0
   -6.8000   -2.0930  -21.0320 C   0  0  0  0  0  0  0  0  0  0  0  0
   -6.1320   -1.2150  -19.9930 C   0  0  0  0  0  0  0  0  0  0  0  0
   -6.5120   -1.2740  -18.6750 C   0  0  0  0  0  0  0  0  0  0  0  0
   -6.0160   -0.5070  -17.6700 N   0  0  0  0  0  0  0  0  0  0  0  0
   -5.0930    0.3700  -17.9980 C   0  0  0  0  0  0  0  0  0  0  0  0
   -4.6060    0.5550  -19.3230 C   0  0  0  0  0  0  0  0  0  0  0  0
   -3.6150    1.5260  -19.6290 C   0  0  0  0  0  0  0  0  0  0  0  0
   -3.1740    1.6900  -20.9160 C   0  0  0  0  0  0  0  0  0  0  0  0
   -3.7060    0.8890  -21.9500 C   0  0  0  0  0  0  0  0  0  0  0  0
   -4.6630   -0.0600  -21.6770 C   0  0  0  0  0  0  0  0  0  0  0  0
   -5.1420   -0.2520  -20.3530 C   0  0  0  0  0  0  0  0  0  0  0  0
   -5.0520   -0.6660  -22.4870 H   0  0  0  0  0  0  0  0  0  0  0  0
   -3.3520    1.0280  -22.9680 H   0  0  0  0  0  0  0  0  0  0  0  0
   -2.4200    2.4380  -21.1510 H   0  0  0  0  0  0  0  0  0  0  0  0
   -3.2170    2.1440  -18.8270 H   0  0  0  0  0  0  0  0  0  0  0  0
   -4.6860    0.9920  -17.2000 H   0  0  0  0  0  0  0  0  0  0  0  0
   -7.2720   -1.9890  -18.3670 H   0  0  0  0  0  0  0  0  0  0  0  0
   -7.3150   -2.9150  -20.5210 H   0  0  0  0  0  0  0  0  0  0  0  0
   -6.0510   -2.5260  -21.7080 H   0  0  0  0  0  0  0  0  0  0  0  0
   -7.6220   -1.0480  -23.1520 N   0  0  0  0  0  0  0  0  0  0  0  0
   -8.0280    0.2380  -23.7200 C   0  0  0  0  0  0  0  0  0  0  0  0
   -7.0540    0.6550  -24.8200 C   0  0  0  0  0  0  0  0  0  0  0  0
   -6.8830   -0.4360  -25.8770 C   0  0  0  0  0  0  0  0  0  0  0  0
   -8.0940   -0.5570  -26.7800 C   0  0  0  0  0  0  0  0  0  0  0  0
   -7.9160   -1.0700  -28.1750 C   0  0  0  0  0  0  0  0  0  0  0  0
   -8.2290    0.3760  -27.9420 C   0  0  0  0  0  0  0  0  0  0  0  0
   -9.2070    0.7370  -28.2340 H   0  0  0  0  0  0  0  0  0  0  0  0
   -7.4300    1.0900  -28.0930 H   0  0  0  0  0  0  0  0  0  0  0  0
   -6.9060   -1.3140  -28.4790 H   0  0  0  0  0  0  0  0  0  0  0  0
   -8.6810   -1.6900  -28.6240 H   0  0  0  0  0  0  0  0  0  0  0  0
   -9.0230   -0.8370  -26.3020 H   0  0  0  0  0  0  0  0  0  0  0  0
   -6.5090   -1.7640  -25.2200 C   0  0  0  0  0  0  0  0  0  0  0  0
   -7.4850   -2.1420  -24.1150 C   0  0  0  0  0  0  0  0  0  0  0  0
   -7.1390   -3.0340  -23.5910 H   0  0  0  0  0  0  0  0  0  0  0  0
   -8.4570   -2.4120  -24.5630 H   0  0  0  0  0  0  0  0  0  0  0  0
   -6.4670   -2.5560  -25.9760 H   0  0  0  0  0  0  0  0  0  0  0  0
   -5.5040   -1.6860  -24.7870 H   0  0  0  0  0  0  0  0  0  0  0  0
   -6.0570   -0.1440  -26.5360 H   0  0  0  0  0  0  0  0  0  0  0  0
   -6.0790    0.8780  -24.3660 H   0  0  0  0  0  0  0  0  0  0  0  0
   -7.3910    1.5830  -25.2960 H   0  0  0  0  0  0  0  0  0  0  0  0
   -8.0180    0.9810  -22.9200 H   0  0  0  0  0  0  0  0  0  0  0  0
   -9.0560    0.2200  -24.1120 H   0  0  0  0  0  0  0  0  0  0  0  0
  1  2  2  0  0  0  0
  2  3  1  0  0  0  0
  2 22  1  0  0  0  0
  3  4  1  0  0  0  0
  3 20  1  0  0  0  0
  3 21  1  0  0  0  0
  4  5  2  0  0  0  0
  4 13  1  0  0  0  0
  5  6  1  0  0  0  0
  5 19  1  0  0  0  0
  6  7  2  0  0  0  0
  7  8  1  0  0  0  0
  7 18  1  0  0  0  0
  8  9  2  0  0  0  0
  8 13  1  0  0  0  0
  9 10  1  0  0  0  0
  9 17  1  0  0  0  0
 10 11  2  0  0  0  0
 10 16  1  0  0  0  0
 11 12  1  0  0  0  0
 11 15  1  0  0  0  0
 12 13  2  0  0  0  0
 12 14  1  0  0  0  0
 22 23  1  0  0  0  0
 22 35  1  0  0  0  0
 23 24  1  0  0  0  0
 23 43  1  0  0  0  0
 23 44  1  0  0  0  0
 24 25  1  0  0  0  0
 24 41  1  0  0  0  0
 24 42  1  0  0  0  0
 25 26  1  0  0  0  0
 25 34  1  0  0  0  0
 25 40  1  0  0  0  0
 26 27  1  0  0  0  0
 26 28  1  0  0  0  0
 26 33  1  0  0  0  0
 27 28  1  0  0  0  0
 27 31  1  0  0  0  0
 27 32  1  0  0  0  0
 28 29  1  0  0  0  0
 28 30  1  0  0  0  0
 34 35  1  0  0  0  0
 34 38  1  0  0  0  0
 34 39  1  0  0  0  0
 35 36  1  0  0  0  0
 35 37  1  0  0  0  0
M  END
>  <MODEL>
      12

$$$$
best_conformers_62.pdb
 OpenBabel01292518153D

 44 47  0  0  0  0  0  0  0  0999 V2000
   -8.7950   -0.7850  -21.1900 O   0  0  0  0  0  0  0  0  0  0  0  0
   -7.8600   -1.2720  -21.7880 C   0  0  0  0  0  0  0  0  0  0  0  0
   -6.8010   -2.0930  -21.0320 C   0  0  0  0  0  0  0  0  0  0  0  0
   -6.1320   -1.2150  -19.9930 C   0  0  0  0  0  0  0  0  0  0  0  0
   -6.5120   -1.2740  -18.6760 C   0  0  0  0  0  0  0  0  0  0  0  0
   -6.0160   -0.5070  -17.6700 N   0  0  0  0  0  0  0  0  0  0  0  0
   -5.0930    0.3700  -17.9980 C   0  0  0  0  0  0  0  0  0  0  0  0
   -4.6060    0.5550  -19.3230 C   0  0  0  0  0  0  0  0  0  0  0  0
   -3.6150    1.5260  -19.6290 C   0  0  0  0  0  0  0  0  0  0  0  0
   -3.1740    1.6900  -20.9160 C   0  0  0  0  0  0  0  0  0  0  0  0
   -3.7060    0.8890  -21.9500 C   0  0  0  0  0  0  0  0  0  0  0  0
   -4.6630   -0.0600  -21.6770 C   0  0  0  0  0  0  0  0  0  0  0  0
   -5.1420   -0.2520  -20.3530 C   0  0  0  0  0  0  0  0  0  0  0  0
   -5.0530   -0.6660  -22.4870 H   0  0  0  0  0  0  0  0  0  0  0  0
   -3.3520    1.0280  -22.9680 H   0  0  0  0  0  0  0  0  0  0  0  0
   -2.4210    2.4390  -21.1510 H   0  0  0  0  0  0  0  0  0  0  0  0
   -3.2170    2.1440  -18.8270 H   0  0  0  0  0  0  0  0  0  0  0  0
   -4.6860    0.9920  -17.2000 H   0  0  0  0  0  0  0  0  0  0  0  0
   -7.2720   -1.9890  -18.3670 H   0  0  0  0  0  0  0  0  0  0  0  0
   -7.3140   -2.9160  -20.5210 H   0  0  0  0  0  0  0  0  0  0  0  0
   -6.0530   -2.5240  -21.7100 H   0  0  0  0  0  0  0  0  0  0  0  0
   -7.6230   -1.0370  -23.1460 N   0  0  0  0  0  0  0  0  0  0  0  0
   -7.4860   -2.1240  -24.1170 C   0  0  0  0  0  0  0  0  0  0  0  0
   -6.5130   -1.7370  -25.2210 C   0  0  0  0  0  0  0  0  0  0  0  0
   -6.8910   -0.4050  -25.8690 C   0  0  0  0  0  0  0  0  0  0  0  0
   -8.1030   -0.5220  -26.7700 C   0  0  0  0  0  0  0  0  0  0  0  0
   -7.9270   -1.0240  -28.1690 C   0  0  0  0  0  0  0  0  0  0  0  0
   -8.2430    0.4200  -27.9250 C   0  0  0  0  0  0  0  0  0  0  0  0
   -7.4460    1.1370  -28.0720 H   0  0  0  0  0  0  0  0  0  0  0  0
   -9.2220    0.7810  -28.2120 H   0  0  0  0  0  0  0  0  0  0  0  0
   -8.6920   -1.6420  -28.6220 H   0  0  0  0  0  0  0  0  0  0  0  0
   -6.9170   -1.2640  -28.4770 H   0  0  0  0  0  0  0  0  0  0  0  0
   -9.0300   -0.8080  -26.2920 H   0  0  0  0  0  0  0  0  0  0  0  0
   -7.0610    0.6780  -24.8040 C   0  0  0  0  0  0  0  0  0  0  0  0
   -8.0330    0.2520  -23.7060 C   0  0  0  0  0  0  0  0  0  0  0  0
   -9.0620    0.2360  -24.0960 H   0  0  0  0  0  0  0  0  0  0  0  0
   -8.0220    0.9900  -22.9000 H   0  0  0  0  0  0  0  0  0  0  0  0
   -7.4000    1.6090  -25.2730 H   0  0  0  0  0  0  0  0  0  0  0  0
   -6.0850    0.8990  -24.3490 H   0  0  0  0  0  0  0  0  0  0  0  0
   -6.0670   -0.1080  -26.5270 H   0  0  0  0  0  0  0  0  0  0  0  0
   -6.4720   -2.5240  -25.9830 H   0  0  0  0  0  0  0  0  0  0  0  0
   -5.5080   -1.6610  -24.7900 H   0  0  0  0  0  0  0  0  0  0  0  0
   -8.4580   -2.3930  -24.5650 H   0  0  0  0  0  0  0  0  0  0  0  0
   -7.1370   -3.0180  -23.5990 H   0  0  0  0  0  0  0  0  0  0  0  0
  1  2  2  0  0  0  0
  2  3  1  0  0  0  0
  2 22  1  0  0  0  0
  3  4  1  0  0  0  0
  3 20  1  0  0  0  0
  3 21  1  0  0  0  0
  4  5  2  0  0  0  0
  4 13  1  0  0  0  0
  5  6  1  0  0  0  0
  5 19  1  0  0  0  0
  6  7  2  0  0  0  0
  7  8  1  0  0  0  0
  7 18  1  0  0  0  0
  8  9  2  0  0  0  0
  8 13  1  0  0  0  0
  9 10  1  0  0  0  0
  9 17  1  0  0  0  0
 10 11  2  0  0  0  0
 10 16  1  0  0  0  0
 11 12  1  0  0  0  0
 11 15  1  0  0  0  0
 12 13  2  0  0  0  0
 12 14  1  0  0  0  0
 22 23  1  0  0  0  0
 22 35  1  0  0  0  0
 23 24  1  0  0  0  0
 23 43  1  0  0  0  0
 23 44  1  0  0  0  0
 24 25  1  0  0  0  0
 24 41  1  0  0  0  0
 24 42  1  0  0  0  0
 25 26  1  0  0  0  0
 25 34  1  0  0  0  0
 25 40  1  0  0  0  0
 26 27  1  0  0  0  0
 26 28  1  0  0  0  0
 26 33  1  0  0  0  0
 27 28  1  0  0  0  0
 27 31  1  0  0  0  0
 27 32  1  0  0  0  0
 28 29  1  0  0  0  0
 28 30  1  0  0  0  0
 34 35  1  0  0  0  0
 34 38  1  0  0  0  0
 34 39  1  0  0  0  0
 35 36  1  0  0  0  0
 35 37  1  0  0  0  0
M  END
>  <MODEL>
      13

$$$$
best_conformers_62.pdb
 OpenBabel01292518153D

 44 47  0  0  0  0  0  0  0  0999 V2000
   -8.7980   -0.7770  -21.1730 O   0  0  0  0  0  0  0  0  0  0  0  0
   -7.8680   -1.2680  -21.7790 C   0  0  0  0  0  0  0  0  0  0  0  0
   -6.8020   -2.0910  -21.0340 C   0  0  0  0  0  0  0  0  0  0  0  0
   -6.1310   -1.2150  -19.9920 C   0  0  0  0  0  0  0  0  0  0  0  0
   -6.5110   -1.2760  -18.6790 C   0  0  0  0  0  0  0  0  0  0  0  0
   -6.0160   -0.5060  -17.6720 N   0  0  0  0  0  0  0  0  0  0  0  0
   -5.0940    0.3690  -18.0000 C   0  0  0  0  0  0  0  0  0  0  0  0
   -4.6060    0.5550  -19.3210 C   0  0  0  0  0  0  0  0  0  0  0  0
   -3.6170    1.5240  -19.6310 C   0  0  0  0  0  0  0  0  0  0  0  0
   -3.1750    1.6890  -20.9150 C   0  0  0  0  0  0  0  0  0  0  0  0
   -3.7080    0.8870  -21.9490 C   0  0  0  0  0  0  0  0  0  0  0  0
   -4.6640   -0.0600  -21.6780 C   0  0  0  0  0  0  0  0  0  0  0  0
   -5.1420   -0.2550  -20.3560 C   0  0  0  0  0  0  0  0  0  0  0  0
   -5.0550   -0.6670  -22.4890 H   0  0  0  0  0  0  0  0  0  0  0  0
   -3.3470    1.0280  -22.9660 H   0  0  0  0  0  0  0  0  0  0  0  0
   -2.4210    2.4390  -21.1490 H   0  0  0  0  0  0  0  0  0  0  0  0
   -3.2210    2.1420  -18.8270 H   0  0  0  0  0  0  0  0  0  0  0  0
   -4.6880    0.9910  -17.1980 H   0  0  0  0  0  0  0  0  0  0  0  0
   -7.2720   -1.9900  -18.3640 H   0  0  0  0  0  0  0  0  0  0  0  0
   -7.3130   -2.9170  -20.5220 H   0  0  0  0  0  0  0  0  0  0  0  0
   -6.0620   -2.5170  -21.7230 H   0  0  0  0  0  0  0  0  0  0  0  0
   -7.6460   -1.0310  -23.1380 N   0  0  0  0  0  0  0  0  0  0  0  0
   -8.0550    0.2520  -23.7000 C   0  0  0  0  0  0  0  0  0  0  0  0
   -7.0420    0.7110  -24.7440 C   0  0  0  0  0  0  0  0  0  0  0  0
   -6.8150   -0.3510  -25.8250 C   0  0  0  0  0  0  0  0  0  0  0  0
   -5.8000    0.1520  -26.8520 C   0  0  0  0  0  0  0  0  0  0  0  0
   -4.3730    0.4350  -26.4610 C   0  0  0  0  0  0  0  0  0  0  0  0
   -4.6840   -0.6810  -27.4200 C   0  0  0  0  0  0  0  0  0  0  0  0
   -4.5610   -1.7040  -27.0770 H   0  0  0  0  0  0  0  0  0  0  0  0
   -4.3980   -0.5510  -28.4610 H   0  0  0  0  0  0  0  0  0  0  0  0
   -4.0640    0.1570  -25.4550 H   0  0  0  0  0  0  0  0  0  0  0  0
   -3.8720    1.3230  -26.8430 H   0  0  0  0  0  0  0  0  0  0  0  0
   -6.2140    0.8790  -27.5490 H   0  0  0  0  0  0  0  0  0  0  0  0
   -6.4470   -1.6880  -25.1800 C   0  0  0  0  0  0  0  0  0  0  0  0
   -7.4610   -2.0900  -24.1230 C   0  0  0  0  0  0  0  0  0  0  0  0
   -7.1470   -2.9960  -23.6050 H   0  0  0  0  0  0  0  0  0  0  0  0
   -8.4140   -2.3350  -24.6220 H   0  0  0  0  0  0  0  0  0  0  0  0
   -5.4590   -1.6300  -24.7110 H   0  0  0  0  0  0  0  0  0  0  0  0
   -6.3810   -2.4720  -25.9410 H   0  0  0  0  0  0  0  0  0  0  0  0
   -7.7730   -0.4930  -26.3480 H   0  0  0  0  0  0  0  0  0  0  0  0
   -7.3690    1.6520  -25.1980 H   0  0  0  0  0  0  0  0  0  0  0  0
   -6.0900    0.9320  -24.2430 H   0  0  0  0  0  0  0  0  0  0  0  0
   -8.1140    0.9690  -22.8800 H   0  0  0  0  0  0  0  0  0  0  0  0
   -9.0580    0.2010  -24.1520 H   0  0  0  0  0  0  0  0  0  0  0  0
  1  2  2  0  0  0  0
  2  3  1  0  0  0  0
  2 22  1  0  0  0  0
  3  4  1  0  0  0  0
  3 20  1  0  0  0  0
  3 21  1  0  0  0  0
  4  5  2  0  0  0  0
  4 13  1  0  0  0  0
  5  6  1  0  0  0  0
  5 19  1  0  0  0  0
  6  7  2  0  0  0  0
  7  8  1  0  0  0  0
  7 18  1  0  0  0  0
  8  9  2  0  0  0  0
  8 13  1  0  0  0  0
  9 10  1  0  0  0  0
  9 17  1  0  0  0  0
 10 11  2  0  0  0  0
 10 16  1  0  0  0  0
 11 12  1  0  0  0  0
 11 15  1  0  0  0  0
 12 13  2  0  0  0  0
 12 14  1  0  0  0  0
 22 23  1  0  0  0  0
 22 35  1  0  0  0  0
 23 24  1  0  0  0  0
 23 43  1  0  0  0  0
 23 44  1  0  0  0  0
 24 25  1  0  0  0  0
 24 41  1  0  0  0  0
 24 42  1  0  0  0  0
 25 26  1  0  0  0  0
 25 34  1  0  0  0  0
 25 40  1  0  0  0  0
 26 27  1  0  0  0  0
 26 28  1  0  0  0  0
 26 33  1  0  0  0  0
 27 28  1  0  0  0  0
 27 31  1  0  0  0  0
 27 32  1  0  0  0  0
 28 29  1  0  0  0  0
 28 30  1  0  0  0  0
 34 35  1  0  0  0  0
 34 38  1  0  0  0  0
 34 39  1  0  0  0  0
 35 36  1  0  0  0  0
 35 37  1  0  0  0  0
M  END
>  <MODEL>
      14

$$$$
best_conformers_62.pdb
 OpenBabel01292518153D

 44 47  0  0  0  0  0  0  0  0999 V2000
   -8.7830   -0.7540  -21.1850 O   0  0  0  0  0  0  0  0  0  0  0  0
   -7.8600   -1.2650  -21.7870 C   0  0  0  0  0  0  0  0  0  0  0  0
   -6.8020   -2.0910  -21.0330 C   0  0  0  0  0  0  0  0  0  0  0  0
   -6.1310   -1.2150  -19.9920 C   0  0  0  0  0  0  0  0  0  0  0  0
   -6.5110   -1.2760  -18.6790 C   0  0  0  0  0  0  0  0  0  0  0  0
   -6.0160   -0.5060  -17.6720 N   0  0  0  0  0  0  0  0  0  0  0  0
   -5.0940    0.3690  -18.0000 C   0  0  0  0  0  0  0  0  0  0  0  0
   -4.6060    0.5550  -19.3210 C   0  0  0  0  0  0  0  0  0  0  0  0
   -3.6170    1.5240  -19.6310 C   0  0  0  0  0  0  0  0  0  0  0  0
   -3.1750    1.6890  -20.9150 C   0  0  0  0  0  0  0  0  0  0  0  0
   -3.7080    0.8870  -21.9500 C   0  0  0  0  0  0  0  0  0  0  0  0
   -4.6630   -0.0600  -21.6780 C   0  0  0  0  0  0  0  0  0  0  0  0
   -5.1420   -0.2550  -20.3560 C   0  0  0  0  0  0  0  0  0  0  0  0
   -5.0540   -0.6680  -22.4890 H   0  0  0  0  0  0  0  0  0  0  0  0
   -3.3470    1.0270  -22.9670 H   0  0  0  0  0  0  0  0  0  0  0  0
   -2.4210    2.4400  -21.1490 H   0  0  0  0  0  0  0  0  0  0  0  0
   -3.2210    2.1420  -18.8270 H   0  0  0  0  0  0  0  0  0  0  0  0
   -4.6880    0.9910  -17.1980 H   0  0  0  0  0  0  0  0  0  0  0  0
   -7.2720   -1.9900  -18.3640 H   0  0  0  0  0  0  0  0  0  0  0  0
   -7.3180   -2.9140  -20.5220 H   0  0  0  0  0  0  0  0  0  0  0  0
   -6.0600   -2.5220  -21.7180 H   0  0  0  0  0  0  0  0  0  0  0  0
   -7.6420   -1.0590  -23.1510 N   0  0  0  0  0  0  0  0  0  0  0  0
   -7.4710   -2.1420  -24.1120 C   0  0  0  0  0  0  0  0  0  0  0  0
   -6.4490   -1.7680  -25.1740 C   0  0  0  0  0  0  0  0  0  0  0  0
   -6.8000   -0.4380  -25.8490 C   0  0  0  0  0  0  0  0  0  0  0  0
   -5.7480   -0.1010  -26.9070 C   0  0  0  0  0  0  0  0  0  0  0  0
   -4.3140    0.1580  -26.5230 C   0  0  0  0  0  0  0  0  0  0  0  0
   -5.1500    1.2640  -27.1060 C   0  0  0  0  0  0  0  0  0  0  0  0
   -4.9160    1.6000  -28.1140 H   0  0  0  0  0  0  0  0  0  0  0  0
   -5.4560    2.0750  -26.4520 H   0  0  0  0  0  0  0  0  0  0  0  0
   -4.0840    0.2180  -25.4620 H   0  0  0  0  0  0  0  0  0  0  0  0
   -3.5070   -0.2570  -27.1260 H   0  0  0  0  0  0  0  0  0  0  0  0
   -5.8560   -0.6800  -27.8220 H   0  0  0  0  0  0  0  0  0  0  0  0
   -7.0130    0.6480  -24.7930 C   0  0  0  0  0  0  0  0  0  0  0  0
   -8.0290    0.2180  -23.7410 C   0  0  0  0  0  0  0  0  0  0  0  0
   -8.0780    0.9510  -22.9360 H   0  0  0  0  0  0  0  0  0  0  0  0
   -9.0340    0.1760  -24.1890 H   0  0  0  0  0  0  0  0  0  0  0  0
   -7.3450    1.5770  -25.2670 H   0  0  0  0  0  0  0  0  0  0  0  0
   -6.0690    0.8880  -24.2890 H   0  0  0  0  0  0  0  0  0  0  0  0
   -7.7590   -0.5760  -26.3690 H   0  0  0  0  0  0  0  0  0  0  0  0
   -6.3720   -2.5680  -25.9200 H   0  0  0  0  0  0  0  0  0  0  0  0
   -5.4630   -1.6860  -24.7020 H   0  0  0  0  0  0  0  0  0  0  0  0
   -7.1710   -3.0450  -23.5780 H   0  0  0  0  0  0  0  0  0  0  0  0
   -8.4270   -2.3780  -24.6120 H   0  0  0  0  0  0  0  0  0  0  0  0
  1  2  2  0  0  0  0
  2  3  1  0  0  0  0
  2 22  1  0  0  0  0
  3  4  1  0  0  0  0
  3 20  1  0  0  0  0
  3 21  1  0  0  0  0
  4  5  2  0  0  0  0
  4 13  1  0  0  0  0
  5  6  1  0  0  0  0
  5 19  1  0  0  0  0
  6  7  2  0  0  0  0
  7  8  1  0  0  0  0
  7 18  1  0  0  0  0
  8  9  2  0  0  0  0
  8 13  1  0  0  0  0
  9 10  1  0  0  0  0
  9 17  1  0  0  0  0
 10 11  2  0  0  0  0
 10 16  1  0  0  0  0
 11 12  1  0  0  0  0
 11 15  1  0  0  0  0
 12 13  2  0  0  0  0
 12 14  1  0  0  0  0
 22 23  1  0  0  0  0
 22 35  1  0  0  0  0
 23 24  1  0  0  0  0
 23 43  1  0  0  0  0
 23 44  1  0  0  0  0
 24 25  1  0  0  0  0
 24 41  1  0  0  0  0
 24 42  1  0  0  0  0
 25 26  1  0  0  0  0
 25 34  1  0  0  0  0
 25 40  1  0  0  0  0
 26 27  1  0  0  0  0
 26 28  1  0  0  0  0
 26 33  1  0  0  0  0
 27 28  1  0  0  0  0
 27 31  1  0  0  0  0
 27 32  1  0  0  0  0
 28 29  1  0  0  0  0
 28 30  1  0  0  0  0
 34 35  1  0  0  0  0
 34 38  1  0  0  0  0
 34 39  1  0  0  0  0
 35 36  1  0  0  0  0
 35 37  1  0  0  0  0
M  END
>  <MODEL>
      15

$$$$
