best_conformers_92.pdb
 OpenBabel01292518153D

 60 65  0  0  1  0  0  0  0  0999 V2000
   -6.3250   -7.3680  -22.6680 C   0  0  0  0  0  0  0  0  0  0  0  0
   -6.7840   -6.2080  -22.0240 O   0  0  0  0  0  0  0  0  0  0  0  0
   -6.9870   -5.1420  -22.9200 C   0  0  0  0  0  0  0  0  0  0  0  0
   -7.4260   -3.9440  -22.1030 C   0  0  1  0  0  0  0  0  0  0  0  0
   -6.3490   -3.4530  -21.1310 C   0  0  0  0  0  0  0  0  0  0  0  0
   -6.7320   -2.0670  -20.9510 N   0  0  0  0  0  0  0  0  0  0  0  0
   -6.1460   -1.2180  -19.9980 C   0  0  0  0  0  0  0  0  0  0  0  0
   -6.5370   -1.3250  -18.6920 C   0  0  0  0  0  0  0  0  0  0  0  0
   -6.0570   -0.5610  -17.6840 N   0  0  0  0  0  0  0  0  0  0  0  0
   -5.1440    0.3250  -18.0120 C   0  0  0  0  0  0  0  0  0  0  0  0
   -4.6430    0.5220  -19.3310 C   0  0  0  0  0  0  0  0  0  0  0  0
   -3.6510    1.4960  -19.6060 C   0  0  0  0  0  0  0  0  0  0  0  0
   -3.1610    1.6480  -20.8720 C   0  0  0  0  0  0  0  0  0  0  0  0
   -3.6400    0.8370  -21.9250 C   0  0  0  0  0  0  0  0  0  0  0  0
   -4.6100   -0.1030  -21.6900 C   0  0  0  0  0  0  0  0  0  0  0  0
   -5.1440   -0.2770  -20.3770 C   0  0  0  0  0  0  0  0  0  0  0  0
   -4.9800   -0.7000  -22.5190 H   0  0  0  0  0  0  0  0  0  0  0  0
   -3.2340    0.9670  -22.9240 H   0  0  0  0  0  0  0  0  0  0  0  0
   -2.3940    2.3890  -21.0720 H   0  0  0  0  0  0  0  0  0  0  0  0
   -3.2990    2.1100  -18.7830 H   0  0  0  0  0  0  0  0  0  0  0  0
   -4.7500    0.9440  -17.2090 H   0  0  0  0  0  0  0  0  0  0  0  0
   -7.2980   -2.0600  -18.4350 H   0  0  0  0  0  0  0  0  0  0  0  0
   -7.5320   -1.5530  -21.9420 C   0  0  0  0  0  0  0  0  0  0  0  0
   -7.8530   -0.3830  -22.0230 O   0  0  0  0  0  0  0  0  0  0  0  0
   -7.8890   -2.6790  -22.9050 C   0  0  1  0  0  0  0  0  0  0  0  0
   -7.0770   -2.4090  -24.1990 C   0  0  0  0  0  0  0  0  0  0  0  0
   -7.5280   -3.2220  -25.3220 N   0  0  0  0  0  0  0  0  0  0  0  0
   -6.5800   -3.6450  -26.3500 C   0  0  0  0  0  0  0  0  0  0  0  0
   -6.1000   -5.0730  -26.2390 C   0  0  0  0  0  0  0  0  0  0  0  0
   -4.8110   -5.5510  -25.9060 C   0  0  0  0  0  0  0  0  0  0  0  0
   -4.7260   -6.8780  -26.0060 N   0  0  0  0  0  0  0  0  0  0  0  0
   -5.9540   -7.2510  -26.3870 N   0  0  0  0  0  0  0  0  0  0  0  0
   -6.8130   -6.2170  -26.5460 C   0  0  0  0  0  0  0  0  0  0  0  0
   -7.8320   -6.3680  -26.8850 H   0  0  0  0  0  0  0  0  0  0  0  0
   -6.1490   -8.2260  -26.5570 H   0  0  0  0  0  0  0  0  0  0  0  0
   -3.9310   -4.9940  -25.5870 H   0  0  0  0  0  0  0  0  0  0  0  0
   -7.0980   -3.5330  -27.3070 H   0  0  0  0  0  0  0  0  0  0  0  0
   -5.7320   -2.9540  -26.3360 H   0  0  0  0  0  0  0  0  0  0  0  0
   -8.8460   -3.4870  -25.5770 C   0  0  0  0  0  0  0  0  0  0  0  0
   -9.2260   -3.9790  -26.6370 O   0  0  0  0  0  0  0  0  0  0  0  0
   -9.8020   -3.1960  -24.4650 C   0  0  0  0  0  0  0  0  0  0  0  0
  -11.1350   -3.5380  -24.6780 C   0  0  0  0  0  0  0  0  0  0  0  0
  -12.0500   -3.4480  -23.6460 C   0  0  0  0  0  0  0  0  0  0  0  0
  -11.6430   -2.9130  -22.4260 C   0  0  0  0  0  0  0  0  0  0  0  0
  -12.8110   -2.8300  -21.1390 Cl  0  0  0  0  0  0  0  0  0  0  0  0
  -10.3310   -2.5130  -22.2170 C   0  0  0  0  0  0  0  0  0  0  0  0
   -9.3720   -2.7300  -23.2200 C   0  0  0  0  0  0  0  0  0  0  0  0
  -10.0380   -2.0660  -21.2700 H   0  0  0  0  0  0  0  0  0  0  0  0
  -13.0670   -3.8120  -23.7620 H   0  0  0  0  0  0  0  0  0  0  0  0
  -11.4130   -3.8820  -25.6700 H   0  0  0  0  0  0  0  0  0  0  0  0
   -6.0050   -2.6020  -24.0160 H   0  0  0  0  0  0  0  0  0  0  0  0
   -7.1740   -1.3370  -24.4290 H   0  0  0  0  0  0  0  0  0  0  0  0
   -5.3340   -3.5430  -21.5530 H   0  0  0  0  0  0  0  0  0  0  0  0
   -6.3540   -3.9830  -20.1750 H   0  0  0  0  0  0  0  0  0  0  0  0
   -8.2860   -4.2630  -21.5090 H   0  0  0  0  0  0  0  0  0  0  0  0
   -7.7590   -5.3890  -23.6630 H   0  0  0  0  0  0  0  0  0  0  0  0
   -6.0610   -4.9070  -23.4650 H   0  0  0  0  0  0  0  0  0  0  0  0
   -7.0550   -7.7200  -23.4110 H   0  0  0  0  0  0  0  0  0  0  0  0
   -5.3680   -7.1870  -23.1750 H   0  0  0  0  0  0  0  0  0  0  0  0
   -6.1970   -8.1420  -21.9060 H   0  0  0  0  0  0  0  0  0  0  0  0
  1  2  1  0  0  0  0
  1 58  1  0  0  0  0
  1 59  1  0  0  0  0
  1 60  1  0  0  0  0
  2  3  1  0  0  0  0
  3  4  1  0  0  0  0
  3 56  1  0  0  0  0
  3 57  1  0  0  0  0
  4  5  1  0  0  0  0
  4 25  1  0  0  0  0
  4 55  1  1  0  0  0
  5  6  1  0  0  0  0
  5 53  1  0  0  0  0
  5 54  1  0  0  0  0
  6  7  1  0  0  0  0
  6 23  1  0  0  0  0
  7  8  2  0  0  0  0
  7 16  1  0  0  0  0
  8  9  1  0  0  0  0
  8 22  1  0  0  0  0
  9 10  2  0  0  0  0
 10 11  1  0  0  0  0
 10 21  1  0  0  0  0
 11 12  2  0  0  0  0
 11 16  1  0  0  0  0
 12 13  1  0  0  0  0
 12 20  1  0  0  0  0
 13 14  2  0  0  0  0
 13 19  1  0  0  0  0
 14 15  1  0  0  0  0
 14 18  1  0  0  0  0
 15 16  2  0  0  0  0
 15 17  1  0  0  0  0
 23 24  2  0  0  0  0
 25 23  1  1  0  0  0
 25 26  1  0  0  0  0
 25 47  1  0  0  0  0
 26 27  1  0  0  0  0
 26 51  1  0  0  0  0
 26 52  1  0  0  0  0
 27 28  1  0  0  0  0
 27 39  1  0  0  0  0
 28 29  1  0  0  0  0
 28 37  1  0  0  0  0
 28 38  1  0  0  0  0
 29 30  1  0  0  0  0
 29 33  2  0  0  0  0
 30 31  2  0  0  0  0
 30 36  1  0  0  0  0
 31 32  1  0  0  0  0
 32 33  1  0  0  0  0
 32 35  1  0  0  0  0
 33 34  1  0  0  0  0
 39 40  2  0  0  0  0
 39 41  1  0  0  0  0
 41 42  2  0  0  0  0
 41 47  1  0  0  0  0
 42 43  1  0  0  0  0
 42 50  1  0  0  0  0
 43 44  2  0  0  0  0
 43 49  1  0  0  0  0
 44 45  1  0  0  0  0
 44 46  1  0  0  0  0
 46 47  2  0  0  0  0
 46 48  1  0  0  0  0
M  END
>  <MODEL>
       1

$$$$
best_conformers_92.pdb
 OpenBabel01292518153D

 60 65  0  0  1  0  0  0  0  0999 V2000
   -6.3050   -7.3690  -22.6270 C   0  0  0  0  0  0  0  0  0  0  0  0
   -6.8030   -6.2080  -22.0180 O   0  0  0  0  0  0  0  0  0  0  0  0
   -6.9810   -5.1460  -22.9250 C   0  0  0  0  0  0  0  0  0  0  0  0
   -7.4270   -3.9470  -22.1110 C   0  0  1  0  0  0  0  0  0  0  0  0
   -6.3550   -3.4550  -21.1320 C   0  0  0  0  0  0  0  0  0  0  0  0
   -6.7340   -2.0680  -20.9530 N   0  0  0  0  0  0  0  0  0  0  0  0
   -6.1490   -1.2180  -20.0010 C   0  0  0  0  0  0  0  0  0  0  0  0
   -6.5390   -1.3250  -18.6940 C   0  0  0  0  0  0  0  0  0  0  0  0
   -6.0580   -0.5620  -17.6870 N   0  0  0  0  0  0  0  0  0  0  0  0
   -5.1450    0.3240  -18.0130 C   0  0  0  0  0  0  0  0  0  0  0  0
   -4.6440    0.5200  -19.3320 C   0  0  0  0  0  0  0  0  0  0  0  0
   -3.6520    1.4950  -19.6070 C   0  0  0  0  0  0  0  0  0  0  0  0
   -3.1590    1.6470  -20.8720 C   0  0  0  0  0  0  0  0  0  0  0  0
   -3.6380    0.8360  -21.9260 C   0  0  0  0  0  0  0  0  0  0  0  0
   -4.6090   -0.1040  -21.6910 C   0  0  0  0  0  0  0  0  0  0  0  0
   -5.1460   -0.2780  -20.3790 C   0  0  0  0  0  0  0  0  0  0  0  0
   -4.9790   -0.7020  -22.5200 H   0  0  0  0  0  0  0  0  0  0  0  0
   -3.2330    0.9650  -22.9250 H   0  0  0  0  0  0  0  0  0  0  0  0
   -2.3930    2.3900  -21.0730 H   0  0  0  0  0  0  0  0  0  0  0  0
   -3.2990    2.1090  -18.7840 H   0  0  0  0  0  0  0  0  0  0  0  0
   -4.7510    0.9430  -17.2090 H   0  0  0  0  0  0  0  0  0  0  0  0
   -7.3000   -2.0600  -18.4340 H   0  0  0  0  0  0  0  0  0  0  0  0
   -7.5370   -1.5530  -21.9420 C   0  0  0  0  0  0  0  0  0  0  0  0
   -7.8500   -0.3840  -22.0260 O   0  0  0  0  0  0  0  0  0  0  0  0
   -7.8930   -2.6810  -22.9060 C   0  0  1  0  0  0  0  0  0  0  0  0
   -7.0920   -2.4160  -24.2030 C   0  0  0  0  0  0  0  0  0  0  0  0
   -7.5490   -3.2300  -25.3220 N   0  0  0  0  0  0  0  0  0  0  0  0
   -6.6140   -3.6680  -26.3540 C   0  0  0  0  0  0  0  0  0  0  0  0
   -6.1180   -5.0940  -26.2410 C   0  0  0  0  0  0  0  0  0  0  0  0
   -6.7860   -6.2790  -26.6380 C   0  0  0  0  0  0  0  0  0  0  0  0
   -6.0280   -7.3630  -26.5000 N   0  0  0  0  0  0  0  0  0  0  0  0
   -4.8860   -6.8800  -25.9990 N   0  0  0  0  0  0  0  0  0  0  0  0
   -4.8780   -5.5370  -25.8260 C   0  0  0  0  0  0  0  0  0  0  0  0
   -4.0080   -5.0100  -25.4330 H   0  0  0  0  0  0  0  0  0  0  0  0
   -4.1370   -7.5220  -25.8000 H   0  0  0  0  0  0  0  0  0  0  0  0
   -7.7890   -6.3890  -27.0320 H   0  0  0  0  0  0  0  0  0  0  0  0
   -7.1500   -3.5570  -27.3030 H   0  0  0  0  0  0  0  0  0  0  0  0
   -5.7660   -2.9800  -26.3480 H   0  0  0  0  0  0  0  0  0  0  0  0
   -8.8750   -3.4530  -25.5830 C   0  0  0  0  0  0  0  0  0  0  0  0
   -9.2670   -3.8970  -26.6540 O   0  0  0  0  0  0  0  0  0  0  0  0
   -9.8190   -3.1740  -24.4620 C   0  0  0  0  0  0  0  0  0  0  0  0
  -11.1550   -3.5010  -24.6730 C   0  0  0  0  0  0  0  0  0  0  0  0
  -12.0630   -3.4170  -23.6370 C   0  0  0  0  0  0  0  0  0  0  0  0
  -11.6440   -2.9000  -22.4110 C   0  0  0  0  0  0  0  0  0  0  0  0
  -12.8170   -2.8340  -21.1270 Cl  0  0  0  0  0  0  0  0  0  0  0  0
  -10.3280   -2.5110  -22.2040 C   0  0  0  0  0  0  0  0  0  0  0  0
   -9.3770   -2.7260  -23.2150 C   0  0  0  0  0  0  0  0  0  0  0  0
  -10.0300   -2.0740  -21.2550 H   0  0  0  0  0  0  0  0  0  0  0  0
  -13.0810   -3.7720  -23.7520 H   0  0  0  0  0  0  0  0  0  0  0  0
  -11.4320   -3.8350  -25.6690 H   0  0  0  0  0  0  0  0  0  0  0  0
   -6.0230   -2.6120  -24.0250 H   0  0  0  0  0  0  0  0  0  0  0  0
   -7.1860   -1.3440  -24.4310 H   0  0  0  0  0  0  0  0  0  0  0  0
   -5.3370   -3.5450  -21.5450 H   0  0  0  0  0  0  0  0  0  0  0  0
   -6.3620   -3.9840  -20.1760 H   0  0  0  0  0  0  0  0  0  0  0  0
   -8.2870   -4.2720  -21.5200 H   0  0  0  0  0  0  0  0  0  0  0  0
   -6.0470   -4.9230  -23.4630 H   0  0  0  0  0  0  0  0  0  0  0  0
   -7.7440   -5.3960  -23.6780 H   0  0  0  0  0  0  0  0  0  0  0  0
   -5.2790   -7.2220  -22.9900 H   0  0  0  0  0  0  0  0  0  0  0  0
   -6.3020   -8.1610  -21.8730 H   0  0  0  0  0  0  0  0  0  0  0  0
   -6.9380   -7.6810  -23.4700 H   0  0  0  0  0  0  0  0  0  0  0  0
  1  2  1  0  0  0  0
  1 58  1  0  0  0  0
  1 59  1  0  0  0  0
  1 60  1  0  0  0  0
  2  3  1  0  0  0  0
  3  4  1  0  0  0  0
  3 56  1  0  0  0  0
  3 57  1  0  0  0  0
  4  5  1  0  0  0  0
  4 25  1  0  0  0  0
  4 55  1  1  0  0  0
  5  6  1  0  0  0  0
  5 53  1  0  0  0  0
  5 54  1  0  0  0  0
  6  7  1  0  0  0  0
  6 23  1  0  0  0  0
  7  8  2  0  0  0  0
  7 16  1  0  0  0  0
  8  9  1  0  0  0  0
  8 22  1  0  0  0  0
  9 10  2  0  0  0  0
 10 11  1  0  0  0  0
 10 21  1  0  0  0  0
 11 12  2  0  0  0  0
 11 16  1  0  0  0  0
 12 13  1  0  0  0  0
 12 20  1  0  0  0  0
 13 14  2  0  0  0  0
 13 19  1  0  0  0  0
 14 15  1  0  0  0  0
 14 18  1  0  0  0  0
 15 16  2  0  0  0  0
 15 17  1  0  0  0  0
 23 24  2  0  0  0  0
 25 23  1  1  0  0  0
 25 26  1  0  0  0  0
 25 47  1  0  0  0  0
 26 27  1  0  0  0  0
 26 51  1  0  0  0  0
 26 52  1  0  0  0  0
 27 28  1  0  0  0  0
 27 39  1  0  0  0  0
 28 29  1  0  0  0  0
 28 37  1  0  0  0  0
 28 38  1  0  0  0  0
 29 30  1  0  0  0  0
 29 33  2  0  0  0  0
 30 31  2  0  0  0  0
 30 36  1  0  0  0  0
 31 32  1  0  0  0  0
 32 33  1  0  0  0  0
 32 35  1  0  0  0  0
 33 34  1  0  0  0  0
 39 40  2  0  0  0  0
 39 41  1  0  0  0  0
 41 42  2  0  0  0  0
 41 47  1  0  0  0  0
 42 43  1  0  0  0  0
 42 50  1  0  0  0  0
 43 44  2  0  0  0  0
 43 49  1  0  0  0  0
 44 45  1  0  0  0  0
 44 46  1  0  0  0  0
 46 47  2  0  0  0  0
 46 48  1  0  0  0  0
M  END
>  <MODEL>
       2

$$$$
best_conformers_92.pdb
 OpenBabel01292518153D

 60 65  0  0  1  0  0  0  0  0999 V2000
   -6.3200   -7.3980  -22.6440 C   0  0  0  0  0  0  0  0  0  0  0  0
   -6.7660   -6.2560  -21.9580 O   0  0  0  0  0  0  0  0  0  0  0  0
   -6.9980   -5.1880  -22.8460 C   0  0  0  0  0  0  0  0  0  0  0  0
   -7.4260   -3.9700  -22.0480 C   0  0  1  0  0  0  0  0  0  0  0  0
   -6.3430   -3.4670  -21.0890 C   0  0  0  0  0  0  0  0  0  0  0  0
   -6.7100   -2.0740  -20.9320 N   0  0  0  0  0  0  0  0  0  0  0  0
   -6.1290   -1.2190  -19.9850 C   0  0  0  0  0  0  0  0  0  0  0  0
   -6.5250   -1.3190  -18.6800 C   0  0  0  0  0  0  0  0  0  0  0  0
   -6.0500   -0.5490  -17.6760 N   0  0  0  0  0  0  0  0  0  0  0  0
   -5.1370    0.3380  -18.0020 C   0  0  0  0  0  0  0  0  0  0  0  0
   -4.6330    0.5280  -19.3210 C   0  0  0  0  0  0  0  0  0  0  0  0
   -3.6430    1.5030  -19.6020 C   0  0  0  0  0  0  0  0  0  0  0  0
   -3.1540    1.6520  -20.8690 C   0  0  0  0  0  0  0  0  0  0  0  0
   -3.6350    0.8390  -21.9200 C   0  0  0  0  0  0  0  0  0  0  0  0
   -4.6030   -0.1020  -21.6810 C   0  0  0  0  0  0  0  0  0  0  0  0
   -5.1330   -0.2740  -20.3650 C   0  0  0  0  0  0  0  0  0  0  0  0
   -4.9750   -0.7020  -22.5070 H   0  0  0  0  0  0  0  0  0  0  0  0
   -3.2340    0.9670  -22.9210 H   0  0  0  0  0  0  0  0  0  0  0  0
   -2.3890    2.3950  -21.0760 H   0  0  0  0  0  0  0  0  0  0  0  0
   -3.2880    2.1220  -18.7830 H   0  0  0  0  0  0  0  0  0  0  0  0
   -4.7390    0.9610  -17.2010 H   0  0  0  0  0  0  0  0  0  0  0  0
   -7.2900   -2.0510  -18.4180 H   0  0  0  0  0  0  0  0  0  0  0  0
   -7.5050   -1.5710  -21.9310 C   0  0  0  0  0  0  0  0  0  0  0  0
   -7.7960   -0.3960  -22.0610 O   0  0  0  0  0  0  0  0  0  0  0  0
   -7.8630   -2.7090  -22.8750 C   0  0  1  0  0  0  0  0  0  0  0  0
   -7.0590   -2.4650  -24.1630 C   0  0  0  0  0  0  0  0  0  0  0  0
   -7.4610   -3.3720  -25.2140 N   0  0  0  0  0  0  0  0  0  0  0  0
   -6.4520   -3.8110  -26.1650 C   0  0  0  0  0  0  0  0  0  0  0  0
   -6.0720   -2.7720  -27.1890 C   0  0  0  0  0  0  0  0  0  0  0  0
   -5.1250   -1.7180  -27.2690 C   0  0  0  0  0  0  0  0  0  0  0  0
   -5.2100   -1.0640  -28.4250 N   0  0  0  0  0  0  0  0  0  0  0  0
   -6.2120   -1.6780  -29.0750 N   0  0  0  0  0  0  0  0  0  0  0  0
   -6.7580   -2.6900  -28.3730 C   0  0  0  0  0  0  0  0  0  0  0  0
   -7.6090   -3.2690  -28.7050 H   0  0  0  0  0  0  0  0  0  0  0  0
   -6.4550   -1.4180  -30.0170 H   0  0  0  0  0  0  0  0  0  0  0  0
   -4.4030   -1.3860  -26.5300 H   0  0  0  0  0  0  0  0  0  0  0  0
   -6.8810   -4.6650  -26.7000 H   0  0  0  0  0  0  0  0  0  0  0  0
   -5.5920   -4.1820  -25.5960 H   0  0  0  0  0  0  0  0  0  0  0  0
   -8.7780   -3.4750  -25.5730 C   0  0  0  0  0  0  0  0  0  0  0  0
   -9.1490   -3.7960  -26.6940 O   0  0  0  0  0  0  0  0  0  0  0  0
   -9.7540   -3.2060  -24.4790 C   0  0  0  0  0  0  0  0  0  0  0  0
  -11.0940   -3.5130  -24.7080 C   0  0  0  0  0  0  0  0  0  0  0  0
  -12.0290   -3.4040  -23.6970 C   0  0  0  0  0  0  0  0  0  0  0  0
  -11.6280   -2.8490  -22.4880 C   0  0  0  0  0  0  0  0  0  0  0  0
  -12.8130   -2.7120  -21.2250 Cl  0  0  0  0  0  0  0  0  0  0  0  0
  -10.3120   -2.4760  -22.2680 C   0  0  0  0  0  0  0  0  0  0  0  0
   -9.3320   -2.7370  -23.2360 C   0  0  0  0  0  0  0  0  0  0  0  0
  -10.0480   -2.0160  -21.3250 H   0  0  0  0  0  0  0  0  0  0  0  0
  -13.0460   -3.7610  -23.8090 H   0  0  0  0  0  0  0  0  0  0  0  0
  -11.3640   -3.8730  -25.6910 H   0  0  0  0  0  0  0  0  0  0  0  0
   -5.9920   -2.5890  -23.9680 H   0  0  0  0  0  0  0  0  0  0  0  0
   -7.1970   -1.4150  -24.4580 H   0  0  0  0  0  0  0  0  0  0  0  0
   -6.3520   -3.9730  -20.1220 H   0  0  0  0  0  0  0  0  0  0  0  0
   -5.3310   -3.5750  -21.5130 H   0  0  0  0  0  0  0  0  0  0  0  0
   -8.2980   -4.2570  -21.4520 H   0  0  0  0  0  0  0  0  0  0  0  0
   -7.7860   -5.4460  -23.5670 H   0  0  0  0  0  0  0  0  0  0  0  0
   -6.0810   -4.9570  -23.4150 H   0  0  0  0  0  0  0  0  0  0  0  0
   -7.0460   -7.7190  -23.4080 H   0  0  0  0  0  0  0  0  0  0  0  0
   -5.3560   -7.2160  -23.1470 H   0  0  0  0  0  0  0  0  0  0  0  0
   -6.1920   -8.2030  -21.9180 H   0  0  0  0  0  0  0  0  0  0  0  0
  1  2  1  0  0  0  0
  1 58  1  0  0  0  0
  1 59  1  0  0  0  0
  1 60  1  0  0  0  0
  2  3  1  0  0  0  0
  3  4  1  0  0  0  0
  3 56  1  0  0  0  0
  3 57  1  0  0  0  0
  4  5  1  0  0  0  0
  4 25  1  0  0  0  0
  4 55  1  1  0  0  0
  5  6  1  0  0  0  0
  5 53  1  0  0  0  0
  5 54  1  0  0  0  0
  6  7  1  0  0  0  0
  6 23  1  0  0  0  0
  7  8  2  0  0  0  0
  7 16  1  0  0  0  0
  8  9  1  0  0  0  0
  8 22  1  0  0  0  0
  9 10  2  0  0  0  0
 10 11  1  0  0  0  0
 10 21  1  0  0  0  0
 11 12  2  0  0  0  0
 11 16  1  0  0  0  0
 12 13  1  0  0  0  0
 12 20  1  0  0  0  0
 13 14  2  0  0  0  0
 13 19  1  0  0  0  0
 14 15  1  0  0  0  0
 14 18  1  0  0  0  0
 15 16  2  0  0  0  0
 15 17  1  0  0  0  0
 23 24  2  0  0  0  0
 25 23  1  1  0  0  0
 25 26  1  0  0  0  0
 25 47  1  0  0  0  0
 26 27  1  0  0  0  0
 26 51  1  0  0  0  0
 26 52  1  0  0  0  0
 27 28  1  0  0  0  0
 27 39  1  0  0  0  0
 28 29  1  0  0  0  0
 28 37  1  0  0  0  0
 28 38  1  0  0  0  0
 29 30  1  0  0  0  0
 29 33  2  0  0  0  0
 30 31  2  0  0  0  0
 30 36  1  0  0  0  0
 31 32  1  0  0  0  0
 32 33  1  0  0  0  0
 32 35  1  0  0  0  0
 33 34  1  0  0  0  0
 39 40  2  0  0  0  0
 39 41  1  0  0  0  0
 41 42  2  0  0  0  0
 41 47  1  0  0  0  0
 42 43  1  0  0  0  0
 42 50  1  0  0  0  0
 43 44  2  0  0  0  0
 43 49  1  0  0  0  0
 44 45  1  0  0  0  0
 44 46  1  0  0  0  0
 46 47  2  0  0  0  0
 46 48  1  0  0  0  0
M  END
>  <MODEL>
       3

$$$$
