best_conformers_4.pdb
 OpenBabel01292518153D

 59 64  0  0  1  0  0  0  0  0999 V2000
   -6.9230   -5.1720  -22.9190 C   0  0  0  0  0  0  0  0  0  0  0  0
   -7.4490   -3.9750  -22.1290 C   0  0  1  0  0  0  0  0  0  0  0  0
   -6.4440   -3.4520  -21.0860 C   0  0  0  0  0  0  0  0  0  0  0  0
   -6.7760   -2.0440  -20.9660 N   0  0  0  0  0  0  0  0  0  0  0  0
   -6.1730   -1.1900  -20.0080 C   0  0  0  0  0  0  0  0  0  0  0  0
   -6.5330   -1.2950  -18.6890 C   0  0  0  0  0  0  0  0  0  0  0  0
   -6.0250   -0.5350  -17.6900 N   0  0  0  0  0  0  0  0  0  0  0  0
   -5.1100    0.3480  -18.0180 C   0  0  0  0  0  0  0  0  0  0  0  0
   -4.6180    0.5400  -19.3420 C   0  0  0  0  0  0  0  0  0  0  0  0
   -3.6130    1.5010  -19.6370 C   0  0  0  0  0  0  0  0  0  0  0  0
   -3.1410    1.6470  -20.9110 C   0  0  0  0  0  0  0  0  0  0  0  0
   -3.6470    0.8310  -21.9510 C   0  0  0  0  0  0  0  0  0  0  0  0
   -4.6190   -0.1000  -21.6910 C   0  0  0  0  0  0  0  0  0  0  0  0
   -5.1510   -0.2570  -20.3790 C   0  0  0  0  0  0  0  0  0  0  0  0
   -4.9990   -0.7160  -22.5020 H   0  0  0  0  0  0  0  0  0  0  0  0
   -3.2750    0.9590  -22.9630 H   0  0  0  0  0  0  0  0  0  0  0  0
   -2.3860    2.3950  -21.1360 H   0  0  0  0  0  0  0  0  0  0  0  0
   -3.2400    2.1210  -18.8250 H   0  0  0  0  0  0  0  0  0  0  0  0
   -4.7120    0.9640  -17.2120 H   0  0  0  0  0  0  0  0  0  0  0  0
   -7.2830   -2.0270  -18.3920 H   0  0  0  0  0  0  0  0  0  0  0  0
   -7.5330   -1.5560  -22.0040 C   0  0  0  0  0  0  0  0  0  0  0  0
   -7.8680   -0.3940  -22.1160 O   0  0  0  0  0  0  0  0  0  0  0  0
   -7.8690   -2.7130  -22.9680 C   0  0  1  0  0  0  0  0  0  0  0  0
   -7.0820   -2.4750  -24.2710 C   0  0  0  0  0  0  0  0  0  0  0  0
   -7.5310   -3.2980  -25.3920 N   0  0  0  0  0  0  0  0  0  0  0  0
   -6.5400   -3.5220  -26.4440 C   0  0  0  0  0  0  0  0  0  0  0  0
   -5.5250   -4.5810  -26.0950 C   0  0  0  0  0  0  0  0  0  0  0  0
   -4.3390   -4.3280  -25.5810 N   0  0  0  0  0  0  0  0  0  0  0  0
   -3.7540   -5.5550  -25.3760 C   0  0  0  0  0  0  0  0  0  0  0  0
   -4.6110   -6.5510  -25.7610 C   0  0  0  0  0  0  0  0  0  0  0  0
   -5.7410   -5.9190  -26.2350 N   0  0  0  0  0  0  0  0  0  0  0  0
   -6.9540   -6.5580  -26.7160 C   0  0  0  0  0  0  0  0  0  0  0  0
   -7.7800   -6.4250  -26.0070 H   0  0  0  0  0  0  0  0  0  0  0  0
   -6.7430   -7.6250  -26.8300 H   0  0  0  0  0  0  0  0  0  0  0  0
   -7.2500   -6.1390  -27.6830 H   0  0  0  0  0  0  0  0  0  0  0  0
   -4.5500   -7.6300  -25.7230 H   0  0  0  0  0  0  0  0  0  0  0  0
   -2.7610   -5.6260  -24.9500 H   0  0  0  0  0  0  0  0  0  0  0  0
   -7.0970   -3.7540  -27.3540 H   0  0  0  0  0  0  0  0  0  0  0  0
   -5.9790   -2.5930  -26.5930 H   0  0  0  0  0  0  0  0  0  0  0  0
   -8.8520   -3.5550  -25.6460 C   0  0  0  0  0  0  0  0  0  0  0  0
   -9.2410   -4.0830  -26.6820 O   0  0  0  0  0  0  0  0  0  0  0  0
   -9.8030   -3.1830  -24.5440 C   0  0  0  0  0  0  0  0  0  0  0  0
  -11.1690   -3.3740  -24.7560 C   0  0  0  0  0  0  0  0  0  0  0  0
  -12.0600   -3.1190  -23.7290 C   0  0  0  0  0  0  0  0  0  0  0  0
  -11.5970   -2.6260  -22.5250 C   0  0  0  0  0  0  0  0  0  0  0  0
  -12.4990   -2.3170  -21.5800 F   0  0  0  0  0  0  0  0  0  0  0  0
  -10.2560   -2.4480  -22.2790 C   0  0  0  0  0  0  0  0  0  0  0  0
   -9.3430   -2.7360  -23.2990 C   0  0  0  0  0  0  0  0  0  0  0  0
   -9.9230   -2.1160  -21.3000 H   0  0  0  0  0  0  0  0  0  0  0  0
  -13.1250   -3.3050  -23.7640 H   0  0  0  0  0  0  0  0  0  0  0  0
  -11.4890   -3.7160  -25.7370 H   0  0  0  0  0  0  0  0  0  0  0  0
   -6.0200   -2.7080  -24.1300 H   0  0  0  0  0  0  0  0  0  0  0  0
   -7.1940   -1.4030  -24.5030 H   0  0  0  0  0  0  0  0  0  0  0  0
   -6.5230   -3.9390  -20.1100 H   0  0  0  0  0  0  0  0  0  0  0  0
   -5.4090   -3.5860  -21.4370 H   0  0  0  0  0  0  0  0  0  0  0  0
   -8.3700   -4.2680  -21.6060 H   0  0  0  0  0  0  0  0  0  0  0  0
   -7.6380   -5.4770  -23.6900 H   0  0  0  0  0  0  0  0  0  0  0  0
   -5.9730   -4.9270  -23.4070 H   0  0  0  0  0  0  0  0  0  0  0  0
   -6.7490   -6.0280  -22.2570 H   0  0  0  0  0  0  0  0  0  0  0  0
  1  2  1  0  0  0  0
  1 57  1  0  0  0  0
  1 58  1  0  0  0  0
  1 59  1  0  0  0  0
  2  3  1  0  0  0  0
  2 23  1  0  0  0  0
  2 56  1  1  0  0  0
  3  4  1  0  0  0  0
  3 54  1  0  0  0  0
  3 55  1  0  0  0  0
  4  5  1  0  0  0  0
  4 21  1  0  0  0  0
  5  6  2  0  0  0  0
  5 14  1  0  0  0  0
  6  7  1  0  0  0  0
  6 20  1  0  0  0  0
  7  8  2  0  0  0  0
  8  9  1  0  0  0  0
  8 19  1  0  0  0  0
  9 10  2  0  0  0  0
  9 14  1  0  0  0  0
 10 11  1  0  0  0  0
 10 18  1  0  0  0  0
 11 12  2  0  0  0  0
 11 17  1  0  0  0  0
 12 13  1  0  0  0  0
 12 16  1  0  0  0  0
 13 14  2  0  0  0  0
 13 15  1  0  0  0  0
 21 22  2  0  0  0  0
 23 21  1  1  0  0  0
 23 24  1  0  0  0  0
 23 48  1  0  0  0  0
 24 25  1  0  0  0  0
 24 52  1  0  0  0  0
 24 53  1  0  0  0  0
 25 26  1  0  0  0  0
 25 40  1  0  0  0  0
 26 27  1  0  0  0  0
 26 38  1  0  0  0  0
 26 39  1  0  0  0  0
 27 28  2  0  0  0  0
 27 31  1  0  0  0  0
 28 29  1  0  0  0  0
 29 30  2  0  0  0  0
 29 37  1  0  0  0  0
 30 31  1  0  0  0  0
 30 36  1  0  0  0  0
 31 32  1  0  0  0  0
 32 33  1  0  0  0  0
 32 34  1  0  0  0  0
 32 35  1  0  0  0  0
 40 41  2  0  0  0  0
 40 42  1  0  0  0  0
 42 43  2  0  0  0  0
 42 48  1  0  0  0  0
 43 44  1  0  0  0  0
 43 51  1  0  0  0  0
 44 45  2  0  0  0  0
 44 50  1  0  0  0  0
 45 46  1  0  0  0  0
 45 47  1  0  0  0  0
 47 48  2  0  0  0  0
 47 49  1  0  0  0  0
M  END
>  <MODEL>
       1

$$$$
best_conformers_4.pdb
 OpenBabel01292518153D

 59 64  0  0  1  0  0  0  0  0999 V2000
   -6.8910   -5.1640  -22.9360 C   0  0  0  0  0  0  0  0  0  0  0  0
   -7.4290   -3.9710  -22.1430 C   0  0  1  0  0  0  0  0  0  0  0  0
   -6.4380   -3.4500  -21.0880 C   0  0  0  0  0  0  0  0  0  0  0  0
   -6.7730   -2.0440  -20.9650 N   0  0  0  0  0  0  0  0  0  0  0  0
   -6.1730   -1.1900  -20.0090 C   0  0  0  0  0  0  0  0  0  0  0  0
   -6.5320   -1.2970  -18.6900 C   0  0  0  0  0  0  0  0  0  0  0  0
   -6.0260   -0.5370  -17.6900 N   0  0  0  0  0  0  0  0  0  0  0  0
   -5.1110    0.3470  -18.0180 C   0  0  0  0  0  0  0  0  0  0  0  0
   -4.6190    0.5390  -19.3420 C   0  0  0  0  0  0  0  0  0  0  0  0
   -3.6150    1.5000  -19.6360 C   0  0  0  0  0  0  0  0  0  0  0  0
   -3.1420    1.6470  -20.9110 C   0  0  0  0  0  0  0  0  0  0  0  0
   -3.6450    0.8320  -21.9510 C   0  0  0  0  0  0  0  0  0  0  0  0
   -4.6180   -0.1000  -21.6930 C   0  0  0  0  0  0  0  0  0  0  0  0
   -5.1500   -0.2570  -20.3800 C   0  0  0  0  0  0  0  0  0  0  0  0
   -4.9980   -0.7140  -22.5040 H   0  0  0  0  0  0  0  0  0  0  0  0
   -3.2740    0.9590  -22.9640 H   0  0  0  0  0  0  0  0  0  0  0  0
   -2.3860    2.3960  -21.1340 H   0  0  0  0  0  0  0  0  0  0  0  0
   -3.2420    2.1200  -18.8240 H   0  0  0  0  0  0  0  0  0  0  0  0
   -4.7130    0.9630  -17.2110 H   0  0  0  0  0  0  0  0  0  0  0  0
   -7.2830   -2.0280  -18.3920 H   0  0  0  0  0  0  0  0  0  0  0  0
   -7.5240   -1.5520  -22.0050 C   0  0  0  0  0  0  0  0  0  0  0  0
   -7.8530   -0.3870  -22.1140 O   0  0  0  0  0  0  0  0  0  0  0  0
   -7.8470   -2.7040  -22.9700 C   0  0  1  0  0  0  0  0  0  0  0  0
   -7.0610   -2.4660  -24.2710 C   0  0  0  0  0  0  0  0  0  0  0  0
   -7.4750   -3.3150  -25.3760 N   0  0  0  0  0  0  0  0  0  0  0  0
   -6.4290   -3.7390  -26.2990 C   0  0  0  0  0  0  0  0  0  0  0  0
   -5.6980   -2.5910  -26.9460 C   0  0  0  0  0  0  0  0  0  0  0  0
   -4.4990   -2.1740  -26.5990 N   0  0  0  0  0  0  0  0  0  0  0  0
   -4.2500   -1.0740  -27.3850 C   0  0  0  0  0  0  0  0  0  0  0  0
   -5.3120   -0.8390  -28.2150 C   0  0  0  0  0  0  0  0  0  0  0  0
   -6.2360   -1.8160  -27.9240 N   0  0  0  0  0  0  0  0  0  0  0  0
   -7.5400   -1.9780  -28.5280 C   0  0  0  0  0  0  0  0  0  0  0  0
   -7.5570   -1.4070  -29.4590 H   0  0  0  0  0  0  0  0  0  0  0  0
   -7.7160   -3.0330  -28.7420 H   0  0  0  0  0  0  0  0  0  0  0  0
   -8.3310   -1.6200  -27.8630 H   0  0  0  0  0  0  0  0  0  0  0  0
   -5.5270   -0.0970  -28.9740 H   0  0  0  0  0  0  0  0  0  0  0  0
   -3.3290   -0.5150  -27.2730 H   0  0  0  0  0  0  0  0  0  0  0  0
   -6.9130   -4.4130  -27.0120 H   0  0  0  0  0  0  0  0  0  0  0  0
   -5.6710   -4.2950  -25.7360 H   0  0  0  0  0  0  0  0  0  0  0  0
   -8.7910   -3.5600  -25.6520 C   0  0  0  0  0  0  0  0  0  0  0  0
   -9.1800   -4.0800  -26.6910 O   0  0  0  0  0  0  0  0  0  0  0  0
   -9.7530   -3.1670  -24.5690 C   0  0  0  0  0  0  0  0  0  0  0  0
  -11.1180   -3.3460  -24.7880 C   0  0  0  0  0  0  0  0  0  0  0  0
  -12.0160   -3.0940  -23.7620 C   0  0  0  0  0  0  0  0  0  0  0  0
  -11.5680   -2.6030  -22.5510 C   0  0  0  0  0  0  0  0  0  0  0  0
  -12.4760   -2.2820  -21.6200 F   0  0  0  0  0  0  0  0  0  0  0  0
  -10.2270   -2.4340  -22.3090 C   0  0  0  0  0  0  0  0  0  0  0  0
   -9.3110   -2.7220  -23.3210 C   0  0  0  0  0  0  0  0  0  0  0  0
   -9.8990   -2.1020  -21.3390 H   0  0  0  0  0  0  0  0  0  0  0  0
  -13.0720   -3.3040  -23.8080 H   0  0  0  0  0  0  0  0  0  0  0  0
  -11.4480   -3.6810  -25.7670 H   0  0  0  0  0  0  0  0  0  0  0  0
   -7.2020   -1.4100  -24.5380 H   0  0  0  0  0  0  0  0  0  0  0  0
   -5.9960   -2.6570  -24.1080 H   0  0  0  0  0  0  0  0  0  0  0  0
   -5.3980   -3.5820  -21.4240 H   0  0  0  0  0  0  0  0  0  0  0  0
   -6.5230   -3.9390  -20.1140 H   0  0  0  0  0  0  0  0  0  0  0  0
   -8.3540   -4.2770  -21.6360 H   0  0  0  0  0  0  0  0  0  0  0  0
   -7.6000   -5.4810  -23.7070 H   0  0  0  0  0  0  0  0  0  0  0  0
   -6.6940   -6.0190  -22.2800 H   0  0  0  0  0  0  0  0  0  0  0  0
   -5.9480   -4.9120  -23.4360 H   0  0  0  0  0  0  0  0  0  0  0  0
  1  2  1  0  0  0  0
  1 57  1  0  0  0  0
  1 58  1  0  0  0  0
  1 59  1  0  0  0  0
  2  3  1  0  0  0  0
  2 23  1  0  0  0  0
  2 56  1  1  0  0  0
  3  4  1  0  0  0  0
  3 54  1  0  0  0  0
  3 55  1  0  0  0  0
  4  5  1  0  0  0  0
  4 21  1  0  0  0  0
  5  6  2  0  0  0  0
  5 14  1  0  0  0  0
  6  7  1  0  0  0  0
  6 20  1  0  0  0  0
  7  8  2  0  0  0  0
  8  9  1  0  0  0  0
  8 19  1  0  0  0  0
  9 10  2  0  0  0  0
  9 14  1  0  0  0  0
 10 11  1  0  0  0  0
 10 18  1  0  0  0  0
 11 12  2  0  0  0  0
 11 17  1  0  0  0  0
 12 13  1  0  0  0  0
 12 16  1  0  0  0  0
 13 14  2  0  0  0  0
 13 15  1  0  0  0  0
 21 22  2  0  0  0  0
 23 21  1  1  0  0  0
 23 24  1  0  0  0  0
 23 48  1  0  0  0  0
 24 25  1  0  0  0  0
 24 52  1  0  0  0  0
 24 53  1  0  0  0  0
 25 26  1  0  0  0  0
 25 40  1  0  0  0  0
 26 27  1  0  0  0  0
 26 38  1  0  0  0  0
 26 39  1  0  0  0  0
 27 28  2  0  0  0  0
 27 31  1  0  0  0  0
 28 29  1  0  0  0  0
 29 30  2  0  0  0  0
 29 37  1  0  0  0  0
 30 31  1  0  0  0  0
 30 36  1  0  0  0  0
 31 32  1  0  0  0  0
 32 33  1  0  0  0  0
 32 34  1  0  0  0  0
 32 35  1  0  0  0  0
 40 41  2  0  0  0  0
 40 42  1  0  0  0  0
 42 43  2  0  0  0  0
 42 48  1  0  0  0  0
 43 44  1  0  0  0  0
 43 51  1  0  0  0  0
 44 45  2  0  0  0  0
 44 50  1  0  0  0  0
 45 46  1  0  0  0  0
 45 47  1  0  0  0  0
 47 48  2  0  0  0  0
 47 49  1  0  0  0  0
M  END
>  <MODEL>
       2

$$$$
best_conformers_4.pdb
 OpenBabel01292518153D

 59 64  0  0  1  0  0  0  0  0999 V2000
   -7.0040   -5.2010  -22.8170 C   0  0  0  0  0  0  0  0  0  0  0  0
   -7.4550   -3.9660  -22.0590 C   0  0  1  0  0  0  0  0  0  0  0  0
   -6.4000   -3.4410  -21.0820 C   0  0  0  0  0  0  0  0  0  0  0  0
   -6.7490   -2.0410  -20.9570 N   0  0  0  0  0  0  0  0  0  0  0  0
   -6.1540   -1.1960  -20.0020 C   0  0  0  0  0  0  0  0  0  0  0  0
   -6.5320   -1.3070  -18.6910 C   0  0  0  0  0  0  0  0  0  0  0  0
   -6.0440   -0.5450  -17.6840 N   0  0  0  0  0  0  0  0  0  0  0  0
   -5.1300    0.3410  -18.0120 C   0  0  0  0  0  0  0  0  0  0  0  0
   -4.6320    0.5360  -19.3330 C   0  0  0  0  0  0  0  0  0  0  0  0
   -3.6340    1.5020  -19.6180 C   0  0  0  0  0  0  0  0  0  0  0  0
   -3.1530    1.6490  -20.8880 C   0  0  0  0  0  0  0  0  0  0  0  0
   -3.6410    0.8380  -21.9370 C   0  0  0  0  0  0  0  0  0  0  0  0
   -4.6110   -0.0970  -21.6900 C   0  0  0  0  0  0  0  0  0  0  0  0
   -5.1430   -0.2600  -20.3770 C   0  0  0  0  0  0  0  0  0  0  0  0
   -4.9810   -0.7030  -22.5110 H   0  0  0  0  0  0  0  0  0  0  0  0
   -3.2440    0.9610  -22.9400 H   0  0  0  0  0  0  0  0  0  0  0  0
   -2.3890    2.3900  -21.0990 H   0  0  0  0  0  0  0  0  0  0  0  0
   -3.2690    2.1170  -18.8000 H   0  0  0  0  0  0  0  0  0  0  0  0
   -4.7240    0.9550  -17.2090 H   0  0  0  0  0  0  0  0  0  0  0  0
   -7.2910   -2.0410  -18.4240 H   0  0  0  0  0  0  0  0  0  0  0  0
   -7.4980   -1.5470  -21.9970 C   0  0  0  0  0  0  0  0  0  0  0  0
   -7.8070   -0.3800  -22.1320 O   0  0  0  0  0  0  0  0  0  0  0  0
   -7.8580   -2.7130  -22.9240 C   0  0  1  0  0  0  0  0  0  0  0  0
   -7.0640   -2.5150  -24.2250 C   0  0  0  0  0  0  0  0  0  0  0  0
   -7.5290   -3.3980  -25.2860 N   0  0  0  0  0  0  0  0  0  0  0  0
   -6.5780   -3.7490  -26.3220 C   0  0  0  0  0  0  0  0  0  0  0  0
   -6.4100   -5.2270  -26.5090 C   0  0  0  0  0  0  0  0  0  0  0  0
   -6.0610   -6.1410  -25.6200 N   0  0  0  0  0  0  0  0  0  0  0  0
   -6.0200   -7.3230  -26.3230 C   0  0  0  0  0  0  0  0  0  0  0  0
   -6.3340   -7.1040  -27.6360 C   0  0  0  0  0  0  0  0  0  0  0  0
   -6.5640   -5.7610  -27.7460 N   0  0  0  0  0  0  0  0  0  0  0  0
   -7.0500   -5.0590  -28.9120 C   0  0  0  0  0  0  0  0  0  0  0  0
   -7.9890   -4.5550  -28.6440 H   0  0  0  0  0  0  0  0  0  0  0  0
   -7.2210   -5.7910  -29.7090 H   0  0  0  0  0  0  0  0  0  0  0  0
   -6.3070   -4.3340  -29.2780 H   0  0  0  0  0  0  0  0  0  0  0  0
   -6.4170   -7.7680  -28.4770 H   0  0  0  0  0  0  0  0  0  0  0  0
   -5.8060   -8.2750  -25.8620 H   0  0  0  0  0  0  0  0  0  0  0  0
   -6.8920   -3.3050  -27.2710 H   0  0  0  0  0  0  0  0  0  0  0  0
   -5.6180   -3.2950  -26.0680 H   0  0  0  0  0  0  0  0  0  0  0  0
   -8.8640   -3.5060  -25.5980 C   0  0  0  0  0  0  0  0  0  0  0  0
   -9.2570   -3.8900  -26.6910 O   0  0  0  0  0  0  0  0  0  0  0  0
   -9.8080   -3.1610  -24.4870 C   0  0  0  0  0  0  0  0  0  0  0  0
  -11.1770   -3.3610  -24.6800 C   0  0  0  0  0  0  0  0  0  0  0  0
  -12.0620   -3.1150  -23.6460 C   0  0  0  0  0  0  0  0  0  0  0  0
  -11.5690   -2.6080  -22.4560 C   0  0  0  0  0  0  0  0  0  0  0  0
  -12.4580   -2.3660  -21.4870 F   0  0  0  0  0  0  0  0  0  0  0  0
  -10.2290   -2.3970  -22.2330 C   0  0  0  0  0  0  0  0  0  0  0  0
   -9.3290   -2.7200  -23.2490 C   0  0  0  0  0  0  0  0  0  0  0  0
   -9.8610   -2.0220  -21.2820 H   0  0  0  0  0  0  0  0  0  0  0  0
  -13.1260   -3.3310  -23.6710 H   0  0  0  0  0  0  0  0  0  0  0  0
  -11.5170   -3.7390  -25.6380 H   0  0  0  0  0  0  0  0  0  0  0  0
   -7.1560   -1.4570  -24.5220 H   0  0  0  0  0  0  0  0  0  0  0  0
   -5.9980   -2.7170  -24.0430 H   0  0  0  0  0  0  0  0  0  0  0  0
   -6.4330   -3.9260  -20.1040 H   0  0  0  0  0  0  0  0  0  0  0  0
   -5.3810   -3.5710  -21.4850 H   0  0  0  0  0  0  0  0  0  0  0  0
   -8.3570   -4.2120  -21.4820 H   0  0  0  0  0  0  0  0  0  0  0  0
   -7.7710   -5.4990  -23.5360 H   0  0  0  0  0  0  0  0  0  0  0  0
   -6.8200   -6.0370  -22.1310 H   0  0  0  0  0  0  0  0  0  0  0  0
   -6.0850   -4.9940  -23.3740 H   0  0  0  0  0  0  0  0  0  0  0  0
  1  2  1  0  0  0  0
  1 57  1  0  0  0  0
  1 58  1  0  0  0  0
  1 59  1  0  0  0  0
  2  3  1  0  0  0  0
  2 23  1  0  0  0  0
  2 56  1  1  0  0  0
  3  4  1  0  0  0  0
  3 54  1  0  0  0  0
  3 55  1  0  0  0  0
  4  5  1  0  0  0  0
  4 21  1  0  0  0  0
  5  6  2  0  0  0  0
  5 14  1  0  0  0  0
  6  7  1  0  0  0  0
  6 20  1  0  0  0  0
  7  8  2  0  0  0  0
  8  9  1  0  0  0  0
  8 19  1  0  0  0  0
  9 10  2  0  0  0  0
  9 14  1  0  0  0  0
 10 11  1  0  0  0  0
 10 18  1  0  0  0  0
 11 12  2  0  0  0  0
 11 17  1  0  0  0  0
 12 13  1  0  0  0  0
 12 16  1  0  0  0  0
 13 14  2  0  0  0  0
 13 15  1  0  0  0  0
 21 22  2  0  0  0  0
 23 21  1  1  0  0  0
 23 24  1  0  0  0  0
 23 48  1  0  0  0  0
 24 25  1  0  0  0  0
 24 52  1  0  0  0  0
 24 53  1  0  0  0  0
 25 26  1  0  0  0  0
 25 40  1  0  0  0  0
 26 27  1  0  0  0  0
 26 38  1  0  0  0  0
 26 39  1  0  0  0  0
 27 28  2  0  0  0  0
 27 31  1  0  0  0  0
 28 29  1  0  0  0  0
 29 30  2  0  0  0  0
 29 37  1  0  0  0  0
 30 31  1  0  0  0  0
 30 36  1  0  0  0  0
 31 32  1  0  0  0  0
 32 33  1  0  0  0  0
 32 34  1  0  0  0  0
 32 35  1  0  0  0  0
 40 41  2  0  0  0  0
 40 42  1  0  0  0  0
 42 43  2  0  0  0  0
 42 48  1  0  0  0  0
 43 44  1  0  0  0  0
 43 51  1  0  0  0  0
 44 45  2  0  0  0  0
 44 50  1  0  0  0  0
 45 46  1  0  0  0  0
 45 47  1  0  0  0  0
 47 48  2  0  0  0  0
 47 49  1  0  0  0  0
M  END
>  <MODEL>
       3

$$$$
