best_conformers_16.pdb
 OpenBabel01292518153D

 61 66  0  0  1  0  0  0  0  0999 V2000
   -6.3680   -1.7950  -29.4910 C   0  0  0  0  0  0  0  0  0  0  0  0
   -6.7340   -2.7580  -28.4760 N   0  0  0  0  0  0  0  0  0  0  0  0
   -6.0780   -2.7480  -27.2890 C   0  0  0  0  0  0  0  0  0  0  0  0
   -5.1620   -1.9880  -27.0310 O   0  0  0  0  0  0  0  0  0  0  0  0
   -6.5860   -3.7630  -26.2710 C   0  0  0  0  0  0  0  0  0  0  0  0
   -7.5730   -3.1580  -25.3950 N   0  0  0  0  0  0  0  0  0  0  0  0
   -7.1620   -2.2360  -24.3540 C   0  0  0  0  0  0  0  0  0  0  0  0
   -7.9060   -2.5070  -23.0330 C   0  0  2  0  0  0  0  0  0  0  0  0
   -7.5800   -1.3790  -22.0390 C   0  0  0  0  0  0  0  0  0  0  0  0
   -7.8970   -0.2120  -22.1380 O   0  0  0  0  0  0  0  0  0  0  0  0
   -6.8080   -1.9000  -21.0160 N   0  0  0  0  0  0  0  0  0  0  0  0
   -6.1900   -1.1030  -20.0170 C   0  0  0  0  0  0  0  0  0  0  0  0
   -6.5370   -1.2710  -18.7020 C   0  0  0  0  0  0  0  0  0  0  0  0
   -6.0360   -0.5410  -17.6730 N   0  0  0  0  0  0  0  0  0  0  0  0
   -5.1300    0.3660  -17.9640 C   0  0  0  0  0  0  0  0  0  0  0  0
   -4.6250    0.5940  -19.2780 C   0  0  0  0  0  0  0  0  0  0  0  0
   -3.6150    1.5590  -19.5540 C   0  0  0  0  0  0  0  0  0  0  0  0
   -3.1170    1.7000  -20.8210 C   0  0  0  0  0  0  0  0  0  0  0  0
   -3.5870    0.8810  -21.8710 C   0  0  0  0  0  0  0  0  0  0  0  0
   -4.5650   -0.0480  -21.6300 C   0  0  0  0  0  0  0  0  0  0  0  0
   -5.1380   -0.1870  -20.3350 C   0  0  0  0  0  0  0  0  0  0  0  0
   -4.9140   -0.6880  -22.4340 H   0  0  0  0  0  0  0  0  0  0  0  0
   -3.1770    0.9910  -22.8710 H   0  0  0  0  0  0  0  0  0  0  0  0
   -2.3540    2.4440  -21.0350 H   0  0  0  0  0  0  0  0  0  0  0  0
   -3.2490    2.1850  -18.7440 H   0  0  0  0  0  0  0  0  0  0  0  0
   -4.7330    0.9540  -17.1350 H   0  0  0  0  0  0  0  0  0  0  0  0
   -7.2780   -2.0230  -18.4350 H   0  0  0  0  0  0  0  0  0  0  0  0
   -6.3850   -3.2660  -21.2500 C   0  0  0  0  0  0  0  0  0  0  0  0
   -7.3800   -3.7730  -22.2940 C   0  0  2  0  0  0  0  0  0  0  0  0
   -6.8150   -4.9140  -23.1640 C   0  0  0  0  0  0  0  0  0  0  0  0
   -6.4380   -6.0090  -22.3000 N   0  0  0  0  0  0  0  0  0  0  0  0
   -5.2230   -6.1620  -21.8010 N   0  0  0  0  0  0  0  0  0  0  0  0
   -5.4250   -7.1350  -20.9240 C   0  0  0  0  0  0  0  0  0  0  0  0
   -6.7170   -7.5190  -20.8840 N   0  0  0  0  0  0  0  0  0  0  0  0
   -7.3410   -6.7910  -21.7620 N   0  0  0  0  0  0  0  0  0  0  0  0
   -4.6430   -7.5070  -20.2780 H   0  0  0  0  0  0  0  0  0  0  0  0
   -7.5650   -5.2840  -23.8720 H   0  0  0  0  0  0  0  0  0  0  0  0
   -5.8960   -4.6270  -23.6760 H   0  0  0  0  0  0  0  0  0  0  0  0
   -8.2400   -4.1950  -21.7620 H   0  0  0  0  0  0  0  0  0  0  0  0
   -5.3570   -3.3020  -21.6430 H   0  0  0  0  0  0  0  0  0  0  0  0
   -6.4080   -3.8440  -20.3230 H   0  0  0  0  0  0  0  0  0  0  0  0
   -9.3920   -2.6450  -23.3330 C   0  0  0  0  0  0  0  0  0  0  0  0
  -10.3240   -2.5000  -22.2940 C   0  0  0  0  0  0  0  0  0  0  0  0
  -11.6150   -2.9840  -22.4610 C   0  0  0  0  0  0  0  0  0  0  0  0
  -12.7350   -3.0320  -21.1260 Cl  0  0  0  0  0  0  0  0  0  0  0  0
  -12.0360   -3.5240  -23.6730 C   0  0  0  0  0  0  0  0  0  0  0  0
  -11.1500   -3.5760  -24.7310 C   0  0  0  0  0  0  0  0  0  0  0  0
   -9.8350   -3.1340  -24.5710 C   0  0  0  0  0  0  0  0  0  0  0  0
   -8.8870   -3.3130  -25.7160 C   0  0  0  0  0  0  0  0  0  0  0  0
   -9.2550   -3.6390  -26.8420 O   0  0  0  0  0  0  0  0  0  0  0  0
  -11.4500   -4.0030  -25.6840 H   0  0  0  0  0  0  0  0  0  0  0  0
  -13.0480   -3.9110  -23.7490 H   0  0  0  0  0  0  0  0  0  0  0  0
  -10.0490   -2.0150  -21.3610 H   0  0  0  0  0  0  0  0  0  0  0  0
   -7.3490   -1.1990  -24.6540 H   0  0  0  0  0  0  0  0  0  0  0  0
   -6.0840   -2.3370  -24.2150 H   0  0  0  0  0  0  0  0  0  0  0  0
   -5.7290   -4.1270  -25.6920 H   0  0  0  0  0  0  0  0  0  0  0  0
   -7.0700   -4.6120  -26.7590 H   0  0  0  0  0  0  0  0  0  0  0  0
   -7.6260   -3.2330  -28.5240 H   0  0  0  0  0  0  0  0  0  0  0  0
   -5.2880   -1.8360  -29.6580 H   0  0  0  0  0  0  0  0  0  0  0  0
   -6.6420   -0.7760  -29.1930 H   0  0  0  0  0  0  0  0  0  0  0  0
   -6.8780   -2.0460  -30.4210 H   0  0  0  0  0  0  0  0  0  0  0  0
  1  2  1  0  0  0  0
  1 59  1  0  0  0  0
  1 60  1  0  0  0  0
  1 61  1  0  0  0  0
  2  3  1  0  0  0  0
  2 58  1  0  0  0  0
  3  4  2  0  0  0  0
  3  5  1  0  0  0  0
  5  6  1  0  0  0  0
  5 56  1  0  0  0  0
  5 57  1  0  0  0  0
  6  7  1  0  0  0  0
  6 49  1  0  0  0  0
  7  8  1  0  0  0  0
  7 54  1  0  0  0  0
  7 55  1  0  0  0  0
  8  9  1  1  0  0  0
  8 29  1  0  0  0  0
  8 42  1  0  0  0  0
  9 10  2  0  0  0  0
  9 11  1  0  0  0  0
 11 12  1  0  0  0  0
 11 28  1  0  0  0  0
 12 13  2  0  0  0  0
 12 21  1  0  0  0  0
 13 14  1  0  0  0  0
 13 27  1  0  0  0  0
 14 15  2  0  0  0  0
 15 16  1  0  0  0  0
 15 26  1  0  0  0  0
 16 17  2  0  0  0  0
 16 21  1  0  0  0  0
 17 18  1  0  0  0  0
 17 25  1  0  0  0  0
 18 19  2  0  0  0  0
 18 24  1  0  0  0  0
 19 20  1  0  0  0  0
 19 23  1  0  0  0  0
 20 21  2  0  0  0  0
 20 22  1  0  0  0  0
 28 29  1  0  0  0  0
 28 40  1  0  0  0  0
 28 41  1  0  0  0  0
 29 30  1  0  0  0  0
 29 39  1  1  0  0  0
 30 31  1  0  0  0  0
 30 37  1  0  0  0  0
 30 38  1  0  0  0  0
 31 32  1  0  0  0  0
 31 35  1  0  0  0  0
 32 33  2  0  0  0  0
 33 34  1  0  0  0  0
 33 36  1  0  0  0  0
 34 35  2  0  0  0  0
 42 43  2  0  0  0  0
 42 48  1  0  0  0  0
 43 44  1  0  0  0  0
 43 53  1  0  0  0  0
 44 45  1  0  0  0  0
 44 46  2  0  0  0  0
 46 47  1  0  0  0  0
 46 52  1  0  0  0  0
 47 48  2  0  0  0  0
 47 51  1  0  0  0  0
 48 49  1  0  0  0  0
 49 50  2  0  0  0  0
M  END
>  <MODEL>
       1

$$$$
best_conformers_16.pdb
 OpenBabel01292518153D

 61 66  0  0  1  0  0  0  0  0999 V2000
   -6.8880    2.4410  -23.6000 C   0  0  0  0  0  0  0  0  0  0  0  0
   -7.3190    1.4590  -24.5710 N   0  0  0  0  0  0  0  0  0  0  0  0
   -6.4940    0.4780  -24.9830 C   0  0  0  0  0  0  0  0  0  0  0  0
   -5.3070    0.3990  -24.6890 O   0  0  0  0  0  0  0  0  0  0  0  0
   -7.2140   -0.5830  -25.8260 C   0  0  0  0  0  0  0  0  0  0  0  0
   -8.1590   -1.2910  -24.9740 N   0  0  0  0  0  0  0  0  0  0  0  0
   -7.6450   -2.4130  -24.2240 C   0  0  0  0  0  0  0  0  0  0  0  0
   -8.2110   -2.5210  -22.7800 C   0  0  2  0  0  0  0  0  0  0  0  0
   -7.6670   -1.3890  -21.8770 C   0  0  0  0  0  0  0  0  0  0  0  0
   -7.9280   -0.2060  -21.9460 O   0  0  0  0  0  0  0  0  0  0  0  0
   -6.8170   -1.9410  -20.9470 N   0  0  0  0  0  0  0  0  0  0  0  0
   -6.1670   -1.1610  -19.9690 C   0  0  0  0  0  0  0  0  0  0  0  0
   -6.5160   -1.3000  -18.6500 C   0  0  0  0  0  0  0  0  0  0  0  0
   -6.0110   -0.5460  -17.6450 N   0  0  0  0  0  0  0  0  0  0  0  0
   -5.1050    0.3510  -17.9700 C   0  0  0  0  0  0  0  0  0  0  0  0
   -4.6180    0.5580  -19.2950 C   0  0  0  0  0  0  0  0  0  0  0  0
   -3.6210    1.5230  -19.5990 C   0  0  0  0  0  0  0  0  0  0  0  0
   -3.1650    1.6750  -20.8810 C   0  0  0  0  0  0  0  0  0  0  0  0
   -3.6820    0.8740  -21.9230 C   0  0  0  0  0  0  0  0  0  0  0  0
   -4.6490   -0.0630  -21.6580 C   0  0  0  0  0  0  0  0  0  0  0  0
   -5.1520   -0.2300  -20.3360 C   0  0  0  0  0  0  0  0  0  0  0  0
   -5.0460   -0.6630  -22.4720 H   0  0  0  0  0  0  0  0  0  0  0  0
   -3.3440    1.0100  -22.9450 H   0  0  0  0  0  0  0  0  0  0  0  0
   -2.4070    2.4210  -21.1060 H   0  0  0  0  0  0  0  0  0  0  0  0
   -3.2410    2.1390  -18.7910 H   0  0  0  0  0  0  0  0  0  0  0  0
   -4.7050    0.9660  -17.1640 H   0  0  0  0  0  0  0  0  0  0  0  0
   -7.2740   -2.0320  -18.3670 H   0  0  0  0  0  0  0  0  0  0  0  0
   -6.5070   -3.3300  -21.1640 C   0  0  0  0  0  0  0  0  0  0  0  0
   -7.6320   -3.7870  -22.1080 C   0  0  2  0  0  0  0  0  0  0  0  0
   -7.1570   -4.8880  -23.0720 C   0  0  0  0  0  0  0  0  0  0  0  0
   -6.6950   -6.0230  -22.3120 N   0  0  0  0  0  0  0  0  0  0  0  0
   -5.4390   -6.2200  -21.9500 N   0  0  0  0  0  0  0  0  0  0  0  0
   -5.5760   -7.2020  -21.0710 C   0  0  0  0  0  0  0  0  0  0  0  0
   -6.8630   -7.5630  -20.9130 N   0  0  0  0  0  0  0  0  0  0  0  0
   -7.5570   -6.8000  -21.7010 N   0  0  0  0  0  0  0  0  0  0  0  0
   -4.7560   -7.6270  -20.5100 H   0  0  0  0  0  0  0  0  0  0  0  0
   -7.9710   -5.2360  -23.7120 H   0  0  0  0  0  0  0  0  0  0  0  0
   -6.3260   -4.5670  -23.7010 H   0  0  0  0  0  0  0  0  0  0  0  0
   -8.4290   -4.2160  -21.5030 H   0  0  0  0  0  0  0  0  0  0  0  0
   -5.5170   -3.4570  -21.6290 H   0  0  0  0  0  0  0  0  0  0  0  0
   -6.4860   -3.8750  -20.2140 H   0  0  0  0  0  0  0  0  0  0  0  0
   -9.7310   -2.4350  -22.8650 C   0  0  0  0  0  0  0  0  0  0  0  0
  -10.5910   -3.0230  -21.9220 C   0  0  0  0  0  0  0  0  0  0  0  0
  -11.9640   -2.9170  -22.0820 C   0  0  0  0  0  0  0  0  0  0  0  0
  -13.0370   -3.5590  -20.8650 Cl  0  0  0  0  0  0  0  0  0  0  0  0
  -12.5240   -2.2660  -23.1800 C   0  0  0  0  0  0  0  0  0  0  0  0
  -11.6850   -1.6230  -24.0720 C   0  0  0  0  0  0  0  0  0  0  0  0
  -10.3020   -1.6620  -23.8910 C   0  0  0  0  0  0  0  0  0  0  0  0
   -9.4320   -0.8450  -24.8080 C   0  0  0  0  0  0  0  0  0  0  0  0
   -9.8420    0.1860  -25.3380 O   0  0  0  0  0  0  0  0  0  0  0  0
  -12.0920   -1.0840  -24.9230 H   0  0  0  0  0  0  0  0  0  0  0  0
  -13.6000   -2.2800  -23.3160 H   0  0  0  0  0  0  0  0  0  0  0  0
  -10.2080   -3.5800  -21.0740 H   0  0  0  0  0  0  0  0  0  0  0  0
   -7.9020   -3.3270  -24.7730 H   0  0  0  0  0  0  0  0  0  0  0  0
   -6.5530   -2.3160  -24.1730 H   0  0  0  0  0  0  0  0  0  0  0  0
   -7.7700   -0.1500  -26.6640 H   0  0  0  0  0  0  0  0  0  0  0  0
   -6.4770   -1.2950  -26.2080 H   0  0  0  0  0  0  0  0  0  0  0  0
   -8.3070    1.3690  -24.7920 H   0  0  0  0  0  0  0  0  0  0  0  0
   -6.4810    1.9580  -22.7000 H   0  0  0  0  0  0  0  0  0  0  0  0
   -7.7560    3.0420  -23.3180 H   0  0  0  0  0  0  0  0  0  0  0  0
   -6.1140    3.0860  -24.0300 H   0  0  0  0  0  0  0  0  0  0  0  0
  1  2  1  0  0  0  0
  1 59  1  0  0  0  0
  1 60  1  0  0  0  0
  1 61  1  0  0  0  0
  2  3  1  0  0  0  0
  2 58  1  0  0  0  0
  3  4  2  0  0  0  0
  3  5  1  0  0  0  0
  5  6  1  0  0  0  0
  5 56  1  0  0  0  0
  5 57  1  0  0  0  0
  6  7  1  0  0  0  0
  6 49  1  0  0  0  0
  7  8  1  0  0  0  0
  7 54  1  0  0  0  0
  7 55  1  0  0  0  0
  8  9  1  1  0  0  0
  8 29  1  0  0  0  0
  8 42  1  0  0  0  0
  9 10  2  0  0  0  0
  9 11  1  0  0  0  0
 11 12  1  0  0  0  0
 11 28  1  0  0  0  0
 12 13  2  0  0  0  0
 12 21  1  0  0  0  0
 13 14  1  0  0  0  0
 13 27  1  0  0  0  0
 14 15  2  0  0  0  0
 15 16  1  0  0  0  0
 15 26  1  0  0  0  0
 16 17  2  0  0  0  0
 16 21  1  0  0  0  0
 17 18  1  0  0  0  0
 17 25  1  0  0  0  0
 18 19  2  0  0  0  0
 18 24  1  0  0  0  0
 19 20  1  0  0  0  0
 19 23  1  0  0  0  0
 20 21  2  0  0  0  0
 20 22  1  0  0  0  0
 28 29  1  0  0  0  0
 28 40  1  0  0  0  0
 28 41  1  0  0  0  0
 29 30  1  0  0  0  0
 29 39  1  1  0  0  0
 30 31  1  0  0  0  0
 30 37  1  0  0  0  0
 30 38  1  0  0  0  0
 31 32  1  0  0  0  0
 31 35  1  0  0  0  0
 32 33  2  0  0  0  0
 33 34  1  0  0  0  0
 33 36  1  0  0  0  0
 34 35  2  0  0  0  0
 42 43  2  0  0  0  0
 42 48  1  0  0  0  0
 43 44  1  0  0  0  0
 43 53  1  0  0  0  0
 44 45  1  0  0  0  0
 44 46  2  0  0  0  0
 46 47  1  0  0  0  0
 46 52  1  0  0  0  0
 47 48  2  0  0  0  0
 47 51  1  0  0  0  0
 48 49  1  0  0  0  0
 49 50  2  0  0  0  0
M  END
>  <MODEL>
       2

$$$$
