best_conformers_69.pdb
 OpenBabel01292518153D

 63 67  0  0  0  0  0  0  0  0999 V2000
   -9.7100   -9.1500  -26.3530 C   0  0  0  0  0  0  0  0  0  0  0  0
   -8.9480   -8.1580  -25.8970 C   0  0  0  0  0  0  0  0  0  0  0  0
   -9.3860   -6.7500  -25.9710 C   0  0  0  0  0  0  0  0  0  0  0  0
  -10.4660   -6.4280  -26.4420 O   0  0  0  0  0  0  0  0  0  0  0  0
   -8.4980   -5.8220  -25.4260 N   0  0  0  0  0  0  0  0  0  0  0  0
   -7.0500   -5.9350  -25.5820 C   0  0  0  0  0  0  0  0  0  0  0  0
   -6.5060   -4.5860  -26.0220 C   0  0  0  0  0  0  0  0  0  0  0  0
   -6.7910   -3.5420  -24.9440 C   0  0  0  0  0  0  0  0  0  0  0  0
   -8.2110   -3.6330  -24.4080 C   0  0  0  0  0  0  0  0  0  0  0  0
   -9.0270   -4.7360  -24.7110 C   0  0  0  0  0  0  0  0  0  0  0  0
  -10.3610   -4.7930  -24.2780 C   0  0  0  0  0  0  0  0  0  0  0  0
  -10.8790   -3.7860  -23.4940 C   0  0  0  0  0  0  0  0  0  0  0  0
  -10.0930   -2.6890  -23.1700 C   0  0  0  0  0  0  0  0  0  0  0  0
   -8.7780   -2.6380  -23.6120 C   0  0  0  0  0  0  0  0  0  0  0  0
   -7.9640   -1.4010  -23.1820 N   0  3  0  0  0  0  0  0  0  0  0  0
   -8.4950   -0.0800  -23.8260 C   0  0  0  0  0  0  0  0  0  0  0  0
   -7.5040    1.0480  -23.6510 C   0  0  0  0  0  0  0  0  0  0  0  0
   -7.6420    1.9630  -22.6030 C   0  0  0  0  0  0  0  0  0  0  0  0
   -6.7500    3.0180  -22.4780 C   0  0  0  0  0  0  0  0  0  0  0  0
   -5.7070    3.1760  -23.3850 C   0  0  0  0  0  0  0  0  0  0  0  0
   -5.5690    2.2540  -24.4150 C   0  0  0  0  0  0  0  0  0  0  0  0
   -4.2350    2.4100  -25.5270 Cl  0  0  0  0  0  0  0  0  0  0  0  0
   -6.4490    1.1900  -24.5540 C   0  0  0  0  0  0  0  0  0  0  0  0
   -6.3070    0.4660  -25.3540 H   0  0  0  0  0  0  0  0  0  0  0  0
   -4.9960    3.9920  -23.2910 H   0  0  0  0  0  0  0  0  0  0  0  0
   -6.8650    3.7250  -21.6610 H   0  0  0  0  0  0  0  0  0  0  0  0
   -8.4420    1.8300  -21.8780 H   0  0  0  0  0  0  0  0  0  0  0  0
   -9.4450    0.1530  -23.3410 H   0  0  0  0  0  0  0  0  0  0  0  0
   -8.6940   -0.2930  -24.8780 H   0  0  0  0  0  0  0  0  0  0  0  0
   -7.9040   -1.2630  -21.6960 C   0  0  0  0  0  0  0  0  0  0  0  0
   -8.7560   -0.6400  -21.1110 O   0  0  0  0  0  0  0  0  0  0  0  0
   -6.8080   -2.0630  -20.9960 C   0  0  0  0  0  0  0  0  0  0  0  0
   -6.1190   -1.2140  -19.9640 C   0  0  0  0  0  0  0  0  0  0  0  0
   -6.5050   -1.2740  -18.6520 C   0  0  0  0  0  0  0  0  0  0  0  0
   -6.0110   -0.5020  -17.6480 N   0  0  0  0  0  0  0  0  0  0  0  0
   -5.0900    0.3730  -17.9800 C   0  0  0  0  0  0  0  0  0  0  0  0
   -4.5850    0.5390  -19.3000 C   0  0  0  0  0  0  0  0  0  0  0  0
   -3.5950    1.5060  -19.6090 C   0  0  0  0  0  0  0  0  0  0  0  0
   -3.1310    1.6410  -20.8890 C   0  0  0  0  0  0  0  0  0  0  0  0
   -3.6370    0.8180  -21.9220 C   0  0  0  0  0  0  0  0  0  0  0  0
   -4.6250   -0.0990  -21.6560 C   0  0  0  0  0  0  0  0  0  0  0  0
   -5.1160   -0.2710  -20.3330 C   0  0  0  0  0  0  0  0  0  0  0  0
   -5.0380   -0.6860  -22.4710 H   0  0  0  0  0  0  0  0  0  0  0  0
   -3.2420    0.9250  -22.9330 H   0  0  0  0  0  0  0  0  0  0  0  0
   -2.3730    2.3870  -21.1180 H   0  0  0  0  0  0  0  0  0  0  0  0
   -3.2270    2.1440  -18.8090 H   0  0  0  0  0  0  0  0  0  0  0  0
   -4.6900    1.0060  -17.1850 H   0  0  0  0  0  0  0  0  0  0  0  0
   -7.2670   -1.9910  -18.3470 H   0  0  0  0  0  0  0  0  0  0  0  0
   -7.3000   -2.9170  -20.5090 H   0  0  0  0  0  0  0  0  0  0  0  0
   -6.1050   -2.4690  -21.7330 H   0  0  0  0  0  0  0  0  0  0  0  0
   -7.0050   -1.5680  -23.5300 H   0  0  0  0  0  0  0  0  0  0  0  0
  -10.4760   -1.8710  -22.5750 H   0  0  0  0  0  0  0  0  0  0  0  0
  -11.9000   -3.8720  -23.1360 H   0  0  0  0  0  0  0  0  0  0  0  0
  -10.9960   -5.6170  -24.5660 H   0  0  0  0  0  0  0  0  0  0  0  0
   -6.0800   -3.6690  -24.1090 H   0  0  0  0  0  0  0  0  0  0  0  0
   -6.6110   -2.5370  -25.3550 H   0  0  0  0  0  0  0  0  0  0  0  0
   -5.4310   -4.6610  -26.2110 H   0  0  0  0  0  0  0  0  0  0  0  0
   -6.9940   -4.3070  -26.9600 H   0  0  0  0  0  0  0  0  0  0  0  0
   -6.5750   -6.2290  -24.6340 H   0  0  0  0  0  0  0  0  0  0  0  0
   -6.8380   -6.7150  -26.3200 H   0  0  0  0  0  0  0  0  0  0  0  0
   -8.0210   -8.3480  -25.3840 H   0  0  0  0  0  0  0  0  0  0  0  0
   -9.3990  -10.1900  -26.2800 H   0  0  0  0  0  0  0  0  0  0  0  0
  -10.6610   -8.9100  -26.8120 H   0  0  0  0  0  0  0  0  0  0  0  0
  1  2  2  0  0  0  0
  1 62  1  0  0  0  0
  1 63  1  0  0  0  0
  2  3  1  0  0  0  0
  2 61  1  0  0  0  0
  3  4  2  0  0  0  0
  3  5  1  0  0  0  0
  5  6  1  0  0  0  0
  5 10  1  0  0  0  0
  6  7  1  0  0  0  0
  6 59  1  0  0  0  0
  6 60  1  0  0  0  0
  7  8  1  0  0  0  0
  7 57  1  0  0  0  0
  7 58  1  0  0  0  0
  8  9  1  0  0  0  0
  8 55  1  0  0  0  0
  8 56  1  0  0  0  0
  9 10  2  0  0  0  0
  9 14  1  0  0  0  0
 10 11  1  0  0  0  0
 11 12  2  0  0  0  0
 11 54  1  0  0  0  0
 12 13  1  0  0  0  0
 12 53  1  0  0  0  0
 13 14  2  0  0  0  0
 13 52  1  0  0  0  0
 14 15  1  0  0  0  0
 15 16  1  0  0  0  0
 15 30  1  0  0  0  0
 15 51  1  0  0  0  0
 16 17  1  0  0  0  0
 16 28  1  0  0  0  0
 16 29  1  0  0  0  0
 17 18  2  0  0  0  0
 17 23  1  0  0  0  0
 18 19  1  0  0  0  0
 18 27  1  0  0  0  0
 19 20  2  0  0  0  0
 19 26  1  0  0  0  0
 20 21  1  0  0  0  0
 20 25  1  0  0  0  0
 21 22  1  0  0  0  0
 21 23  2  0  0  0  0
 23 24  1  0  0  0  0
 30 31  2  0  0  0  0
 30 32  1  0  0  0  0
 32 33  1  0  0  0  0
 32 49  1  0  0  0  0
 32 50  1  0  0  0  0
 33 34  2  0  0  0  0
 33 42  1  0  0  0  0
 34 35  1  0  0  0  0
 34 48  1  0  0  0  0
 35 36  2  0  0  0  0
 36 37  1  0  0  0  0
 36 47  1  0  0  0  0
 37 38  2  0  0  0  0
 37 42  1  0  0  0  0
 38 39  1  0  0  0  0
 38 46  1  0  0  0  0
 39 40  2  0  0  0  0
 39 45  1  0  0  0  0
 40 41  1  0  0  0  0
 40 44  1  0  0  0  0
 41 42  2  0  0  0  0
 41 43  1  0  0  0  0
M  CHG  1  15   1
M  END
>  <MODEL>
       1

$$$$
