best_conformers_19.pdb
 OpenBabel01292518153D

 42 45  0  0  1  0  0  0  0  0999 V2000
   -8.3230   -1.5870  -19.8320 O   0  0  0  0  0  0  0  0  0  0  0  0
   -7.6570   -2.3170  -20.5470 C   0  0  0  0  0  0  0  0  0  0  0  0
   -8.3210   -3.0810  -21.6670 C   0  0  1  0  0  0  0  0  0  0  0  0
   -8.5800   -2.1340  -22.8480 C   0  0  0  0  0  0  0  0  0  0  0  0
   -7.7360   -1.0680  -23.1770 C   0  0  0  0  0  0  0  0  0  0  0  0
   -7.7240   -0.5560  -24.4700 C   0  0  0  0  0  0  0  0  0  0  0  0
   -8.5920   -1.0800  -25.4270 C   0  0  0  0  0  0  0  0  0  0  0  0
   -8.4610   -0.5060  -27.0560 Cl  0  0  0  0  0  0  0  0  0  0  0  0
   -9.5210   -2.0630  -25.0570 C   0  0  0  0  0  0  0  0  0  0  0  0
  -10.5280   -2.8870  -26.1850 Cl  0  0  0  0  0  0  0  0  0  0  0  0
   -9.5790   -2.5000  -23.7410 C   0  0  0  0  0  0  0  0  0  0  0  0
  -10.3830   -3.1550  -23.4040 H   0  0  0  0  0  0  0  0  0  0  0  0
   -7.0060    0.2110  -24.7650 H   0  0  0  0  0  0  0  0  0  0  0  0
   -7.0810   -0.6140  -22.4350 H   0  0  0  0  0  0  0  0  0  0  0  0
   -7.4960   -4.3030  -22.0830 C   0  0  0  0  0  0  0  0  0  0  0  0
   -6.0590   -3.9170  -22.3550 C   0  0  2  0  0  0  0  0  0  0  0  0
   -5.3860   -5.0880  -22.7910 O   0  0  0  0  0  0  0  0  0  0  0  0
   -4.5320   -4.8240  -23.1560 H   0  0  0  0  0  0  0  0  0  0  0  0
   -5.4300   -3.3770  -21.0730 C   0  0  0  0  0  0  0  0  0  0  0  0
   -6.2750   -2.3660  -20.4300 N   0  0  0  0  0  0  0  0  0  0  0  0
   -5.7210   -1.3860  -19.5610 C   0  0  0  0  0  0  0  0  0  0  0  0
   -6.1680   -1.3030  -18.2640 C   0  0  0  0  0  0  0  0  0  0  0  0
   -5.7530   -0.3920  -17.3560 N   0  0  0  0  0  0  0  0  0  0  0  0
   -4.8730    0.4990  -17.7540 C   0  0  0  0  0  0  0  0  0  0  0  0
   -4.3580    0.5580  -19.0790 C   0  0  0  0  0  0  0  0  0  0  0  0
   -3.4850    1.6030  -19.4800 C   0  0  0  0  0  0  0  0  0  0  0  0
   -3.0940    1.7160  -20.7840 C   0  0  0  0  0  0  0  0  0  0  0  0
   -3.5510    0.7880  -21.7460 C   0  0  0  0  0  0  0  0  0  0  0  0
   -4.3760   -0.2480  -21.3790 C   0  0  0  0  0  0  0  0  0  0  0  0
   -4.7950   -0.3980  -20.0260 C   0  0  0  0  0  0  0  0  0  0  0  0
   -4.7230   -0.9390  -22.1410 H   0  0  0  0  0  0  0  0  0  0  0  0
   -3.2490    0.9000  -22.7820 H   0  0  0  0  0  0  0  0  0  0  0  0
   -2.4400    2.5250  -21.0940 H   0  0  0  0  0  0  0  0  0  0  0  0
   -3.1620    2.3270  -18.7370 H   0  0  0  0  0  0  0  0  0  0  0  0
   -4.5460    1.2470  -17.0330 H   0  0  0  0  0  0  0  0  0  0  0  0
   -6.9440   -1.9770  -17.9160 H   0  0  0  0  0  0  0  0  0  0  0  0
   -4.4610   -2.9340  -21.2990 H   0  0  0  0  0  0  0  0  0  0  0  0
   -5.2410   -4.2240  -20.4020 H   0  0  0  0  0  0  0  0  0  0  0  0
   -6.0310   -3.1510  -23.1390 H   0  0  0  0  0  0  0  0  0  0  0  0
   -7.4800   -5.0770  -21.3130 H   0  0  0  0  0  0  0  0  0  0  0  0
   -7.9320   -4.7700  -22.9700 H   0  0  0  0  0  0  0  0  0  0  0  0
   -9.3070   -3.3740  -21.2960 H   0  0  0  0  0  0  0  0  0  0  0  0
  1  2  2  0  0  0  0
  2  3  1  0  0  0  0
  2 20  1  0  0  0  0
  3  4  1  0  0  0  0
  3 15  1  0  0  0  0
  3 42  1  1  0  0  0
  4  5  2  0  0  0  0
  4 11  1  0  0  0  0
  5  6  1  0  0  0  0
  5 14  1  0  0  0  0
  6  7  2  0  0  0  0
  6 13  1  0  0  0  0
  7  8  1  0  0  0  0
  7  9  1  0  0  0  0
  9 10  1  0  0  0  0
  9 11  2  0  0  0  0
 11 12  1  0  0  0  0
 15 16  1  0  0  0  0
 15 40  1  0  0  0  0
 15 41  1  0  0  0  0
 16 17  1  0  0  0  0
 16 19  1  0  0  0  0
 16 39  1  6  0  0  0
 17 18  1  0  0  0  0
 19 20  1  0  0  0  0
 19 37  1  0  0  0  0
 19 38  1  0  0  0  0
 20 21  1  0  0  0  0
 21 22  2  0  0  0  0
 21 30  1  0  0  0  0
 22 23  1  0  0  0  0
 22 36  1  0  0  0  0
 23 24  2  0  0  0  0
 24 25  1  0  0  0  0
 24 35  1  0  0  0  0
 25 26  2  0  0  0  0
 25 30  1  0  0  0  0
 26 27  1  0  0  0  0
 26 34  1  0  0  0  0
 27 28  2  0  0  0  0
 27 33  1  0  0  0  0
 28 29  1  0  0  0  0
 28 32  1  0  0  0  0
 29 30  2  0  0  0  0
 29 31  1  0  0  0  0
M  END
>  <MODEL>
       1

$$$$
