best_conformers_11.pdb
 OpenBabel01292518153D

 48 52  0  0  0  0  0  0  0  0999 V2000
   -6.3210   -4.8230  -23.3450 C   0  0  0  0  0  0  0  0  0  0  0  0
   -6.7120   -3.6350  -22.6180 N   0  0  0  0  0  0  0  0  0  0  0  0
   -6.1300   -3.2950  -21.4280 C   0  0  0  0  0  0  0  0  0  0  0  0
   -5.2730   -3.9060  -20.8280 O   0  0  0  0  0  0  0  0  0  0  0  0
   -6.7130   -2.0770  -21.0290 N   0  0  0  0  0  0  0  0  0  0  0  0
   -6.1340   -1.2280  -20.0340 C   0  0  0  0  0  0  0  0  0  0  0  0
   -6.5280   -1.3150  -18.7270 C   0  0  0  0  0  0  0  0  0  0  0  0
   -6.0360   -0.5400  -17.7230 N   0  0  0  0  0  0  0  0  0  0  0  0
   -5.1160    0.3440  -18.0290 C   0  0  0  0  0  0  0  0  0  0  0  0
   -4.6100    0.5410  -19.3440 C   0  0  0  0  0  0  0  0  0  0  0  0
   -3.6120    1.5100  -19.6380 C   0  0  0  0  0  0  0  0  0  0  0  0
   -3.1560    1.6650  -20.9170 C   0  0  0  0  0  0  0  0  0  0  0  0
   -3.6730    0.8590  -21.9560 C   0  0  0  0  0  0  0  0  0  0  0  0
   -4.6330   -0.0830  -21.6950 C   0  0  0  0  0  0  0  0  0  0  0  0
   -5.1310   -0.2630  -20.3790 C   0  0  0  0  0  0  0  0  0  0  0  0
   -5.0240   -0.7020  -22.4940 H   0  0  0  0  0  0  0  0  0  0  0  0
   -3.3170    0.9870  -22.9720 H   0  0  0  0  0  0  0  0  0  0  0  0
   -2.4000    2.4090  -21.1480 H   0  0  0  0  0  0  0  0  0  0  0  0
   -3.2310    2.1260  -18.8280 H   0  0  0  0  0  0  0  0  0  0  0  0
   -4.7220    0.9550  -17.2160 H   0  0  0  0  0  0  0  0  0  0  0  0
   -7.2850   -2.0330  -18.4210 H   0  0  0  0  0  0  0  0  0  0  0  0
   -7.6400   -1.6290  -21.9760 C   0  0  0  0  0  0  0  0  0  0  0  0
   -8.2670   -0.6060  -21.8970 O   0  0  0  0  0  0  0  0  0  0  0  0
   -7.6610   -2.6670  -23.0940 C   0  0  0  0  0  0  0  0  0  0  0  0
   -7.4960   -2.0840  -24.5320 C   0  0  0  0  0  0  0  0  0  0  0  0
   -8.8920   -2.4590  -24.8220 N   0  0  0  0  0  0  0  0  0  0  0  0
   -9.3090   -3.2150  -26.2510 S   0  0  0  0  0  0  0  0  0  0  0  0
  -10.6920   -3.6020  -26.0700 O   0  0  0  0  0  0  0  0  0  0  0  0
   -8.8820   -2.3220  -27.3140 O   0  0  0  0  0  0  0  0  0  0  0  0
   -8.3740   -4.7250  -26.4250 C   0  0  0  0  0  0  0  0  0  0  0  0
   -8.9130   -5.9130  -25.9390 C   0  0  0  0  0  0  0  0  0  0  0  0
   -8.1970   -7.0940  -26.0910 C   0  0  0  0  0  0  0  0  0  0  0  0
   -6.9600   -7.0930  -26.7320 C   0  0  0  0  0  0  0  0  0  0  0  0
   -6.4380   -5.8970  -27.2190 C   0  0  0  0  0  0  0  0  0  0  0  0
   -7.1440   -4.7080  -27.0750 C   0  0  0  0  0  0  0  0  0  0  0  0
   -6.7570   -3.7720  -27.4710 H   0  0  0  0  0  0  0  0  0  0  0  0
   -5.4820   -5.8910  -27.7300 H   0  0  0  0  0  0  0  0  0  0  0  0
   -6.4150   -8.0240  -26.8620 H   0  0  0  0  0  0  0  0  0  0  0  0
   -8.6160   -8.0260  -25.7290 H   0  0  0  0  0  0  0  0  0  0  0  0
   -9.8890   -5.9080  -25.4620 H   0  0  0  0  0  0  0  0  0  0  0  0
   -9.0780   -3.1460  -23.5270 C   0  0  0  0  0  0  0  0  0  0  0  0
   -9.2070   -4.2330  -23.6030 H   0  0  0  0  0  0  0  0  0  0  0  0
   -9.9020   -2.7310  -22.9420 H   0  0  0  0  0  0  0  0  0  0  0  0
   -6.7450   -2.5720  -25.1670 H   0  0  0  0  0  0  0  0  0  0  0  0
   -7.3540   -1.0020  -24.5750 H   0  0  0  0  0  0  0  0  0  0  0  0
   -6.5210   -5.7090  -22.7330 H   0  0  0  0  0  0  0  0  0  0  0  0
   -6.8950   -4.8780  -24.2750 H   0  0  0  0  0  0  0  0  0  0  0  0
   -5.2500   -4.7870  -23.5720 H   0  0  0  0  0  0  0  0  0  0  0  0
  1  2  1  0  0  0  0
  1 46  1  0  0  0  0
  1 47  1  0  0  0  0
  1 48  1  0  0  0  0
  2  3  1  0  0  0  0
  2 24  1  0  0  0  0
  3  4  2  0  0  0  0
  3  5  1  0  0  0  0
  5  6  1  0  0  0  0
  5 22  1  0  0  0  0
  6  7  2  0  0  0  0
  6 15  1  0  0  0  0
  7  8  1  0  0  0  0
  7 21  1  0  0  0  0
  8  9  2  0  0  0  0
  9 10  1  0  0  0  0
  9 20  1  0  0  0  0
 10 11  2  0  0  0  0
 10 15  1  0  0  0  0
 11 12  1  0  0  0  0
 11 19  1  0  0  0  0
 12 13  2  0  0  0  0
 12 18  1  0  0  0  0
 13 14  1  0  0  0  0
 13 17  1  0  0  0  0
 14 15  2  0  0  0  0
 14 16  1  0  0  0  0
 22 23  2  0  0  0  0
 22 24  1  0  0  0  0
 24 25  1  0  0  0  0
 24 41  1  0  0  0  0
 25 26  1  0  0  0  0
 25 44  1  0  0  0  0
 25 45  1  0  0  0  0
 26 27  1  0  0  0  0
 26 41  1  0  0  0  0
 27 28  2  0  0  0  0
 27 29  2  0  0  0  0
 27 30  1  0  0  0  0
 30 31  2  0  0  0  0
 30 35  1  0  0  0  0
 31 32  1  0  0  0  0
 31 40  1  0  0  0  0
 32 33  2  0  0  0  0
 32 39  1  0  0  0  0
 33 34  1  0  0  0  0
 33 38  1  0  0  0  0
 34 35  2  0  0  0  0
 34 37  1  0  0  0  0
 35 36  1  0  0  0  0
 41 42  1  0  0  0  0
 41 43  1  0  0  0  0
M  END
>  <MODEL>
       1

$$$$
best_conformers_11.pdb
 OpenBabel01292518153D

 48 52  0  0  0  0  0  0  0  0999 V2000
   -6.2190   -4.6630  -23.5050 C   0  0  0  0  0  0  0  0  0  0  0  0
   -6.6930   -3.5840  -22.6710 N   0  0  0  0  0  0  0  0  0  0  0  0
   -6.0910   -3.2570  -21.4830 C   0  0  0  0  0  0  0  0  0  0  0  0
   -5.1960   -3.8500  -20.9190 O   0  0  0  0  0  0  0  0  0  0  0  0
   -6.7120   -2.0780  -21.0290 N   0  0  0  0  0  0  0  0  0  0  0  0
   -6.1340   -1.2270  -20.0330 C   0  0  0  0  0  0  0  0  0  0  0  0
   -6.5290   -1.3130  -18.7250 C   0  0  0  0  0  0  0  0  0  0  0  0
   -6.0350   -0.5380  -17.7220 N   0  0  0  0  0  0  0  0  0  0  0  0
   -5.1140    0.3450  -18.0270 C   0  0  0  0  0  0  0  0  0  0  0  0
   -4.6090    0.5420  -19.3430 C   0  0  0  0  0  0  0  0  0  0  0  0
   -3.6130    1.5110  -19.6380 C   0  0  0  0  0  0  0  0  0  0  0  0
   -3.1590    1.6680  -20.9180 C   0  0  0  0  0  0  0  0  0  0  0  0
   -3.6800    0.8640  -21.9570 C   0  0  0  0  0  0  0  0  0  0  0  0
   -4.6400   -0.0780  -21.6950 C   0  0  0  0  0  0  0  0  0  0  0  0
   -5.1320   -0.2620  -20.3770 C   0  0  0  0  0  0  0  0  0  0  0  0
   -5.0350   -0.6910  -22.4970 H   0  0  0  0  0  0  0  0  0  0  0  0
   -3.3270    0.9940  -22.9740 H   0  0  0  0  0  0  0  0  0  0  0  0
   -2.4040    2.4130  -21.1510 H   0  0  0  0  0  0  0  0  0  0  0  0
   -3.2290    2.1260  -18.8290 H   0  0  0  0  0  0  0  0  0  0  0  0
   -4.7190    0.9570  -17.2150 H   0  0  0  0  0  0  0  0  0  0  0  0
   -7.2860   -2.0300  -18.4180 H   0  0  0  0  0  0  0  0  0  0  0  0
   -7.6680   -1.6290  -21.9480 C   0  0  0  0  0  0  0  0  0  0  0  0
   -8.3300   -0.6340  -21.8240 O   0  0  0  0  0  0  0  0  0  0  0  0
   -7.6670   -2.6230  -23.1050 C   0  0  0  0  0  0  0  0  0  0  0  0
   -7.5210   -1.9770  -24.5160 C   0  0  0  0  0  0  0  0  0  0  0  0
   -8.8910   -2.4150  -24.8430 N   0  0  0  0  0  0  0  0  0  0  0  0
   -9.2000   -3.1960  -26.2880 S   0  0  0  0  0  0  0  0  0  0  0  0
   -8.6920   -2.3110  -27.3220 O   0  0  0  0  0  0  0  0  0  0  0  0
  -10.5940   -3.5830  -26.2100 O   0  0  0  0  0  0  0  0  0  0  0  0
   -8.2600   -4.7080  -26.3760 C   0  0  0  0  0  0  0  0  0  0  0  0
   -8.8400   -5.8950  -25.9330 C   0  0  0  0  0  0  0  0  0  0  0  0
   -8.1240   -7.0820  -26.0380 C   0  0  0  0  0  0  0  0  0  0  0  0
   -6.8410   -7.0880  -26.5780 C   0  0  0  0  0  0  0  0  0  0  0  0
   -6.2710   -5.8940  -27.0140 C   0  0  0  0  0  0  0  0  0  0  0  0
   -6.9790   -4.7010  -26.9180 C   0  0  0  0  0  0  0  0  0  0  0  0
   -6.5470   -3.7680  -27.2690 H   0  0  0  0  0  0  0  0  0  0  0  0
   -5.2750   -5.8930  -27.4420 H   0  0  0  0  0  0  0  0  0  0  0  0
   -6.2940   -8.0230  -26.6690 H   0  0  0  0  0  0  0  0  0  0  0  0
   -8.5770   -8.0130  -25.7150 H   0  0  0  0  0  0  0  0  0  0  0  0
   -9.8490   -5.8880  -25.5310 H   0  0  0  0  0  0  0  0  0  0  0  0
   -9.0710   -3.1200  -23.5560 C   0  0  0  0  0  0  0  0  0  0  0  0
   -9.1910   -4.2070  -23.6430 H   0  0  0  0  0  0  0  0  0  0  0  0
   -9.9000   -2.7140  -22.9740 H   0  0  0  0  0  0  0  0  0  0  0  0
   -6.7430   -2.3950  -25.1660 H   0  0  0  0  0  0  0  0  0  0  0  0
   -7.4380   -0.8890  -24.5030 H   0  0  0  0  0  0  0  0  0  0  0  0
   -7.0620   -5.2600  -23.8730 H   0  0  0  0  0  0  0  0  0  0  0  0
   -5.6460   -4.2780  -24.3580 H   0  0  0  0  0  0  0  0  0  0  0  0
   -5.5680   -5.2780  -22.8830 H   0  0  0  0  0  0  0  0  0  0  0  0
  1  2  1  0  0  0  0
  1 46  1  0  0  0  0
  1 47  1  0  0  0  0
  1 48  1  0  0  0  0
  2  3  1  0  0  0  0
  2 24  1  0  0  0  0
  3  4  2  0  0  0  0
  3  5  1  0  0  0  0
  5  6  1  0  0  0  0
  5 22  1  0  0  0  0
  6  7  2  0  0  0  0
  6 15  1  0  0  0  0
  7  8  1  0  0  0  0
  7 21  1  0  0  0  0
  8  9  2  0  0  0  0
  9 10  1  0  0  0  0
  9 20  1  0  0  0  0
 10 11  2  0  0  0  0
 10 15  1  0  0  0  0
 11 12  1  0  0  0  0
 11 19  1  0  0  0  0
 12 13  2  0  0  0  0
 12 18  1  0  0  0  0
 13 14  1  0  0  0  0
 13 17  1  0  0  0  0
 14 15  2  0  0  0  0
 14 16  1  0  0  0  0
 22 23  2  0  0  0  0
 22 24  1  0  0  0  0
 24 25  1  0  0  0  0
 24 41  1  0  0  0  0
 25 26  1  0  0  0  0
 25 44  1  0  0  0  0
 25 45  1  0  0  0  0
 26 27  1  0  0  0  0
 26 41  1  0  0  0  0
 27 28  2  0  0  0  0
 27 29  2  0  0  0  0
 27 30  1  0  0  0  0
 30 31  2  0  0  0  0
 30 35  1  0  0  0  0
 31 32  1  0  0  0  0
 31 40  1  0  0  0  0
 32 33  2  0  0  0  0
 32 39  1  0  0  0  0
 33 34  1  0  0  0  0
 33 38  1  0  0  0  0
 34 35  2  0  0  0  0
 34 37  1  0  0  0  0
 35 36  1  0  0  0  0
 41 42  1  0  0  0  0
 41 43  1  0  0  0  0
M  END
>  <MODEL>
       2

$$$$
best_conformers_11.pdb
 OpenBabel01292518153D

 48 52  0  0  0  0  0  0  0  0999 V2000
   -6.2450   -4.7250  -23.4450 C   0  0  0  0  0  0  0  0  0  0  0  0
   -6.7040   -3.6180  -22.6400 N   0  0  0  0  0  0  0  0  0  0  0  0
   -6.1120   -3.2820  -21.4500 C   0  0  0  0  0  0  0  0  0  0  0  0
   -5.2390   -3.8840  -20.8610 O   0  0  0  0  0  0  0  0  0  0  0  0
   -6.7130   -2.0810  -21.0270 N   0  0  0  0  0  0  0  0  0  0  0  0
   -6.1340   -1.2280  -20.0330 C   0  0  0  0  0  0  0  0  0  0  0  0
   -6.5290   -1.3140  -18.7250 C   0  0  0  0  0  0  0  0  0  0  0  0
   -6.0350   -0.5380  -17.7220 N   0  0  0  0  0  0  0  0  0  0  0  0
   -5.1150    0.3450  -18.0270 C   0  0  0  0  0  0  0  0  0  0  0  0
   -4.6100    0.5420  -19.3430 C   0  0  0  0  0  0  0  0  0  0  0  0
   -3.6120    1.5100  -19.6380 C   0  0  0  0  0  0  0  0  0  0  0  0
   -3.1570    1.6650  -20.9180 C   0  0  0  0  0  0  0  0  0  0  0  0
   -3.6760    0.8600  -21.9560 C   0  0  0  0  0  0  0  0  0  0  0  0
   -4.6360   -0.0820  -21.6950 C   0  0  0  0  0  0  0  0  0  0  0  0
   -5.1320   -0.2630  -20.3780 C   0  0  0  0  0  0  0  0  0  0  0  0
   -5.0280   -0.6990  -22.4950 H   0  0  0  0  0  0  0  0  0  0  0  0
   -3.3200    0.9880  -22.9720 H   0  0  0  0  0  0  0  0  0  0  0  0
   -2.4010    2.4100  -21.1500 H   0  0  0  0  0  0  0  0  0  0  0  0
   -3.2300    2.1260  -18.8290 H   0  0  0  0  0  0  0  0  0  0  0  0
   -4.7190    0.9570  -17.2150 H   0  0  0  0  0  0  0  0  0  0  0  0
   -7.2860   -2.0310  -18.4180 H   0  0  0  0  0  0  0  0  0  0  0  0
   -7.6440   -1.6280  -21.9690 C   0  0  0  0  0  0  0  0  0  0  0  0
   -8.2850   -0.6150  -21.8740 O   0  0  0  0  0  0  0  0  0  0  0  0
   -7.6490   -2.6430  -23.1070 C   0  0  0  0  0  0  0  0  0  0  0  0
   -7.4680   -2.0290  -24.5280 C   0  0  0  0  0  0  0  0  0  0  0  0
   -8.8430   -2.4420  -24.8680 N   0  0  0  0  0  0  0  0  0  0  0  0
   -9.1480   -3.2410  -26.3040 S   0  0  0  0  0  0  0  0  0  0  0  0
   -8.5960   -2.3910  -27.3440 O   0  0  0  0  0  0  0  0  0  0  0  0
  -10.5530   -3.5900  -26.2470 O   0  0  0  0  0  0  0  0  0  0  0  0
   -8.2450   -4.7780  -26.3450 C   0  0  0  0  0  0  0  0  0  0  0  0
   -6.9560   -4.8130  -26.8660 C   0  0  0  0  0  0  0  0  0  0  0  0
   -6.2760   -6.0250  -26.9270 C   0  0  0  0  0  0  0  0  0  0  0  0
   -6.8820   -7.1960  -26.4770 C   0  0  0  0  0  0  0  0  0  0  0  0
   -8.1730   -7.1470  -25.9580 C   0  0  0  0  0  0  0  0  0  0  0  0
   -8.8610   -5.9410  -25.8870 C   0  0  0  0  0  0  0  0  0  0  0  0
   -9.8760   -5.9020  -25.5020 H   0  0  0  0  0  0  0  0  0  0  0  0
   -8.6540   -8.0600  -25.6240 H   0  0  0  0  0  0  0  0  0  0  0  0
   -6.3570   -8.1460  -26.5410 H   0  0  0  0  0  0  0  0  0  0  0  0
   -5.2740   -6.0580  -27.3400 H   0  0  0  0  0  0  0  0  0  0  0  0
   -6.4960   -3.8980  -27.2290 H   0  0  0  0  0  0  0  0  0  0  0  0
   -9.0580   -3.1170  -23.5700 C   0  0  0  0  0  0  0  0  0  0  0  0
   -9.2020   -4.2020  -23.6370 H   0  0  0  0  0  0  0  0  0  0  0  0
   -9.8850   -2.6800  -23.0080 H   0  0  0  0  0  0  0  0  0  0  0  0
   -7.3590   -0.9440  -24.5350 H   0  0  0  0  0  0  0  0  0  0  0  0
   -6.6900   -2.4770  -25.1580 H   0  0  0  0  0  0  0  0  0  0  0  0
   -5.6180   -5.3420  -22.8020 H   0  0  0  0  0  0  0  0  0  0  0  0
   -7.0960   -5.3090  -23.8130 H   0  0  0  0  0  0  0  0  0  0  0  0
   -5.6510   -4.3710  -24.2970 H   0  0  0  0  0  0  0  0  0  0  0  0
  1  2  1  0  0  0  0
  1 46  1  0  0  0  0
  1 47  1  0  0  0  0
  1 48  1  0  0  0  0
  2  3  1  0  0  0  0
  2 24  1  0  0  0  0
  3  4  2  0  0  0  0
  3  5  1  0  0  0  0
  5  6  1  0  0  0  0
  5 22  1  0  0  0  0
  6  7  2  0  0  0  0
  6 15  1  0  0  0  0
  7  8  1  0  0  0  0
  7 21  1  0  0  0  0
  8  9  2  0  0  0  0
  9 10  1  0  0  0  0
  9 20  1  0  0  0  0
 10 11  2  0  0  0  0
 10 15  1  0  0  0  0
 11 12  1  0  0  0  0
 11 19  1  0  0  0  0
 12 13  2  0  0  0  0
 12 18  1  0  0  0  0
 13 14  1  0  0  0  0
 13 17  1  0  0  0  0
 14 15  2  0  0  0  0
 14 16  1  0  0  0  0
 22 23  2  0  0  0  0
 22 24  1  0  0  0  0
 24 25  1  0  0  0  0
 24 41  1  0  0  0  0
 25 26  1  0  0  0  0
 25 44  1  0  0  0  0
 25 45  1  0  0  0  0
 26 27  1  0  0  0  0
 26 41  1  0  0  0  0
 27 28  2  0  0  0  0
 27 29  2  0  0  0  0
 27 30  1  0  0  0  0
 30 31  2  0  0  0  0
 30 35  1  0  0  0  0
 31 32  1  0  0  0  0
 31 40  1  0  0  0  0
 32 33  2  0  0  0  0
 32 39  1  0  0  0  0
 33 34  1  0  0  0  0
 33 38  1  0  0  0  0
 34 35  2  0  0  0  0
 34 37  1  0  0  0  0
 35 36  1  0  0  0  0
 41 42  1  0  0  0  0
 41 43  1  0  0  0  0
M  END
>  <MODEL>
       3

$$$$
best_conformers_11.pdb
 OpenBabel01292518153D

 48 52  0  0  0  0  0  0  0  0999 V2000
   -6.3450   -4.8880  -23.2740 C   0  0  0  0  0  0  0  0  0  0  0  0
   -6.7530   -3.7100  -22.5480 N   0  0  0  0  0  0  0  0  0  0  0  0
   -6.1780   -3.3470  -21.3570 C   0  0  0  0  0  0  0  0  0  0  0  0
   -5.3640   -3.9680  -20.7080 O   0  0  0  0  0  0  0  0  0  0  0  0
   -6.7140   -2.0890  -21.0220 N   0  0  0  0  0  0  0  0  0  0  0  0
   -6.1350   -1.2310  -20.0330 C   0  0  0  0  0  0  0  0  0  0  0  0
   -6.5270   -1.3160  -18.7250 C   0  0  0  0  0  0  0  0  0  0  0  0
   -6.0360   -0.5390  -17.7230 N   0  0  0  0  0  0  0  0  0  0  0  0
   -5.1170    0.3450  -18.0290 C   0  0  0  0  0  0  0  0  0  0  0  0
   -4.6110    0.5410  -19.3450 C   0  0  0  0  0  0  0  0  0  0  0  0
   -3.6120    1.5090  -19.6380 C   0  0  0  0  0  0  0  0  0  0  0  0
   -3.1520    1.6600  -20.9170 C   0  0  0  0  0  0  0  0  0  0  0  0
   -3.6670    0.8520  -21.9550 C   0  0  0  0  0  0  0  0  0  0  0  0
   -4.6280   -0.0880  -21.6940 C   0  0  0  0  0  0  0  0  0  0  0  0
   -5.1320   -0.2660  -20.3790 C   0  0  0  0  0  0  0  0  0  0  0  0
   -5.0150   -0.7100  -22.4930 H   0  0  0  0  0  0  0  0  0  0  0  0
   -3.3050    0.9780  -22.9690 H   0  0  0  0  0  0  0  0  0  0  0  0
   -2.3950    2.4050  -21.1470 H   0  0  0  0  0  0  0  0  0  0  0  0
   -3.2320    2.1250  -18.8290 H   0  0  0  0  0  0  0  0  0  0  0  0
   -4.7210    0.9560  -17.2170 H   0  0  0  0  0  0  0  0  0  0  0  0
   -7.2840   -2.0340  -18.4200 H   0  0  0  0  0  0  0  0  0  0  0  0
   -7.5900   -1.6360  -22.0130 C   0  0  0  0  0  0  0  0  0  0  0  0
   -8.1710   -0.5830  -21.9930 O   0  0  0  0  0  0  0  0  0  0  0  0
   -7.6260   -2.7100  -23.0950 C   0  0  0  0  0  0  0  0  0  0  0  0
   -9.0480   -3.1270  -23.5740 C   0  0  0  0  0  0  0  0  0  0  0  0
   -8.7580   -2.5410  -24.9010 N   0  0  0  0  0  0  0  0  0  0  0  0
   -9.0730   -3.3980  -26.3030 S   0  0  0  0  0  0  0  0  0  0  0  0
  -10.4970   -3.6550  -26.2810 O   0  0  0  0  0  0  0  0  0  0  0  0
   -8.4310   -2.6440  -27.3650 O   0  0  0  0  0  0  0  0  0  0  0  0
   -8.2630   -4.9840  -26.2280 C   0  0  0  0  0  0  0  0  0  0  0  0
   -8.9580   -6.0810  -25.7250 C   0  0  0  0  0  0  0  0  0  0  0  0
   -8.3410   -7.3270  -25.7100 C   0  0  0  0  0  0  0  0  0  0  0  0
   -7.0430   -7.4750  -26.1930 C   0  0  0  0  0  0  0  0  0  0  0  0
   -6.3570   -6.3690  -26.6820 C   0  0  0  0  0  0  0  0  0  0  0  0
   -6.9640   -5.1190  -26.7070 C   0  0  0  0  0  0  0  0  0  0  0  0
   -6.4390   -4.2560  -27.1050 H   0  0  0  0  0  0  0  0  0  0  0  0
   -5.3480   -6.4890  -27.0610 H   0  0  0  0  0  0  0  0  0  0  0  0
   -6.5640   -8.4480  -26.2130 H   0  0  0  0  0  0  0  0  0  0  0  0
   -8.8880   -8.1870  -25.3410 H   0  0  0  0  0  0  0  0  0  0  0  0
   -9.9800   -5.9620  -25.3730 H   0  0  0  0  0  0  0  0  0  0  0  0
   -7.3700   -2.1910  -24.5430 C   0  0  0  0  0  0  0  0  0  0  0  0
   -7.1960   -1.1150  -24.6080 H   0  0  0  0  0  0  0  0  0  0  0  0
   -6.6020   -2.7170  -25.1220 H   0  0  0  0  0  0  0  0  0  0  0  0
   -9.8610   -2.6080  -23.0640 H   0  0  0  0  0  0  0  0  0  0  0  0
   -9.2560   -4.2030  -23.5840 H   0  0  0  0  0  0  0  0  0  0  0  0
   -7.2220   -5.4400  -23.6320 H   0  0  0  0  0  0  0  0  0  0  0  0
   -5.7090   -4.6200  -24.1280 H   0  0  0  0  0  0  0  0  0  0  0  0
   -5.7730   -5.5020  -22.5780 H   0  0  0  0  0  0  0  0  0  0  0  0
  1  2  1  0  0  0  0
  1 46  1  0  0  0  0
  1 47  1  0  0  0  0
  1 48  1  0  0  0  0
  2  3  1  0  0  0  0
  2 24  1  0  0  0  0
  3  4  2  0  0  0  0
  3  5  1  0  0  0  0
  5  6  1  0  0  0  0
  5 22  1  0  0  0  0
  6  7  2  0  0  0  0
  6 15  1  0  0  0  0
  7  8  1  0  0  0  0
  7 21  1  0  0  0  0
  8  9  2  0  0  0  0
  9 10  1  0  0  0  0
  9 20  1  0  0  0  0
 10 11  2  0  0  0  0
 10 15  1  0  0  0  0
 11 12  1  0  0  0  0
 11 19  1  0  0  0  0
 12 13  2  0  0  0  0
 12 18  1  0  0  0  0
 13 14  1  0  0  0  0
 13 17  1  0  0  0  0
 14 15  2  0  0  0  0
 14 16  1  0  0  0  0
 22 23  2  0  0  0  0
 22 24  1  0  0  0  0
 24 25  1  0  0  0  0
 24 41  1  0  0  0  0
 25 26  1  0  0  0  0
 25 44  1  0  0  0  0
 25 45  1  0  0  0  0
 26 27  1  0  0  0  0
 26 41  1  0  0  0  0
 27 28  2  0  0  0  0
 27 29  2  0  0  0  0
 27 30  1  0  0  0  0
 30 31  2  0  0  0  0
 30 35  1  0  0  0  0
 31 32  1  0  0  0  0
 31 40  1  0  0  0  0
 32 33  2  0  0  0  0
 32 39  1  0  0  0  0
 33 34  1  0  0  0  0
 33 38  1  0  0  0  0
 34 35  2  0  0  0  0
 34 37  1  0  0  0  0
 35 36  1  0  0  0  0
 41 42  1  0  0  0  0
 41 43  1  0  0  0  0
M  END
>  <MODEL>
       4

$$$$
best_conformers_11.pdb
 OpenBabel01292518153D

 48 52  0  0  0  0  0  0  0  0999 V2000
   -9.5530   -4.0560  -22.1320 C   0  0  0  0  0  0  0  0  0  0  0  0
   -8.2480   -3.5000  -21.8550 N   0  0  0  0  0  0  0  0  0  0  0  0
   -8.0960   -2.3840  -21.0920 C   0  0  0  0  0  0  0  0  0  0  0  0
   -8.9890   -1.7010  -20.6520 O   0  0  0  0  0  0  0  0  0  0  0  0
   -6.7130   -2.1720  -20.9340 N   0  0  0  0  0  0  0  0  0  0  0  0
   -6.1490   -1.2420  -20.0050 C   0  0  0  0  0  0  0  0  0  0  0  0
   -6.5380   -1.3000  -18.6920 C   0  0  0  0  0  0  0  0  0  0  0  0
   -6.0290   -0.5280  -17.6980 N   0  0  0  0  0  0  0  0  0  0  0  0
   -5.1100    0.3460  -18.0280 C   0  0  0  0  0  0  0  0  0  0  0  0
   -4.6240    0.5370  -19.3490 C   0  0  0  0  0  0  0  0  0  0  0  0
   -3.6270    1.5080  -19.6430 C   0  0  0  0  0  0  0  0  0  0  0  0
   -3.1860    1.6830  -20.9240 C   0  0  0  0  0  0  0  0  0  0  0  0
   -3.7290    0.8970  -21.9650 C   0  0  0  0  0  0  0  0  0  0  0  0
   -4.6930   -0.0470  -21.7070 C   0  0  0  0  0  0  0  0  0  0  0  0
   -5.1620   -0.2680  -20.3830 C   0  0  0  0  0  0  0  0  0  0  0  0
   -5.0980   -0.6420  -22.5200 H   0  0  0  0  0  0  0  0  0  0  0  0
   -3.3830    1.0460  -22.9820 H   0  0  0  0  0  0  0  0  0  0  0  0
   -2.4310    2.4310  -21.1530 H   0  0  0  0  0  0  0  0  0  0  0  0
   -3.2360    2.1140  -18.8300 H   0  0  0  0  0  0  0  0  0  0  0  0
   -4.7080    0.9610  -17.2230 H   0  0  0  0  0  0  0  0  0  0  0  0
   -7.2940   -2.0160  -18.3790 H   0  0  0  0  0  0  0  0  0  0  0  0
   -5.9890   -3.1730  -21.5870 C   0  0  0  0  0  0  0  0  0  0  0  0
   -4.7920   -3.2940  -21.5600 O   0  0  0  0  0  0  0  0  0  0  0  0
   -7.0030   -4.0780  -22.2740 C   0  0  0  0  0  0  0  0  0  0  0  0
   -6.7540   -5.5900  -22.0550 C   0  0  0  0  0  0  0  0  0  0  0  0
   -6.4590   -5.7380  -23.5170 N   0  0  0  0  0  0  0  0  0  0  0  0
   -7.3860   -6.9070  -24.3000 S   0  0  0  0  0  0  0  0  0  0  0  0
   -8.7360   -6.3930  -24.5100 O   0  0  0  0  0  0  0  0  0  0  0  0
   -7.1700   -8.0900  -23.4860 O   0  0  0  0  0  0  0  0  0  0  0  0
   -6.6810   -7.0930  -25.9350 C   0  0  0  0  0  0  0  0  0  0  0  0
   -7.1250   -6.2450  -26.9520 C   0  0  0  0  0  0  0  0  0  0  0  0
   -6.6170   -6.3810  -28.2400 C   0  0  0  0  0  0  0  0  0  0  0  0
   -5.6870   -7.3770  -28.5280 C   0  0  0  0  0  0  0  0  0  0  0  0
   -5.2550   -8.2250  -27.5130 C   0  0  0  0  0  0  0  0  0  0  0  0
   -5.7400   -8.0790  -26.2140 C   0  0  0  0  0  0  0  0  0  0  0  0
   -5.3790   -8.7280  -25.4250 H   0  0  0  0  0  0  0  0  0  0  0  0
   -4.5320   -9.0060  -27.7360 H   0  0  0  0  0  0  0  0  0  0  0  0
   -5.2920   -7.4860  -29.5380 H   0  0  0  0  0  0  0  0  0  0  0  0
   -6.9520   -5.7140  -29.0290 H   0  0  0  0  0  0  0  0  0  0  0  0
   -7.8750   -5.4890  -26.7400 H   0  0  0  0  0  0  0  0  0  0  0  0
   -6.7850   -4.3240  -23.7870 C   0  0  0  0  0  0  0  0  0  0  0  0
   -7.6740   -4.1840  -24.4150 H   0  0  0  0  0  0  0  0  0  0  0  0
   -5.9240   -3.8100  -24.2140 H   0  0  0  0  0  0  0  0  0  0  0  0
   -5.8780   -5.8090  -21.4430 H   0  0  0  0  0  0  0  0  0  0  0  0
   -7.6140   -6.1700  -21.6940 H   0  0  0  0  0  0  0  0  0  0  0  0
   -9.3990   -5.0010  -22.6580 H   0  0  0  0  0  0  0  0  0  0  0  0
  -10.1490   -3.3810  -22.7570 H   0  0  0  0  0  0  0  0  0  0  0  0
  -10.0850   -4.2020  -21.1840 H   0  0  0  0  0  0  0  0  0  0  0  0
  1  2  1  0  0  0  0
  1 46  1  0  0  0  0
  1 47  1  0  0  0  0
  1 48  1  0  0  0  0
  2  3  1  0  0  0  0
  2 24  1  0  0  0  0
  3  4  2  0  0  0  0
  3  5  1  0  0  0  0
  5  6  1  0  0  0  0
  5 22  1  0  0  0  0
  6  7  2  0  0  0  0
  6 15  1  0  0  0  0
  7  8  1  0  0  0  0
  7 21  1  0  0  0  0
  8  9  2  0  0  0  0
  9 10  1  0  0  0  0
  9 20  1  0  0  0  0
 10 11  2  0  0  0  0
 10 15  1  0  0  0  0
 11 12  1  0  0  0  0
 11 19  1  0  0  0  0
 12 13  2  0  0  0  0
 12 18  1  0  0  0  0
 13 14  1  0  0  0  0
 13 17  1  0  0  0  0
 14 15  2  0  0  0  0
 14 16  1  0  0  0  0
 22 23  2  0  0  0  0
 22 24  1  0  0  0  0
 24 25  1  0  0  0  0
 24 41  1  0  0  0  0
 25 26  1  0  0  0  0
 25 44  1  0  0  0  0
 25 45  1  0  0  0  0
 26 27  1  0  0  0  0
 26 41  1  0  0  0  0
 27 28  2  0  0  0  0
 27 29  2  0  0  0  0
 27 30  1  0  0  0  0
 30 31  2  0  0  0  0
 30 35  1  0  0  0  0
 31 32  1  0  0  0  0
 31 40  1  0  0  0  0
 32 33  2  0  0  0  0
 32 39  1  0  0  0  0
 33 34  1  0  0  0  0
 33 38  1  0  0  0  0
 34 35  2  0  0  0  0
 34 37  1  0  0  0  0
 35 36  1  0  0  0  0
 41 42  1  0  0  0  0
 41 43  1  0  0  0  0
M  END
>  <MODEL>
       5

$$$$
best_conformers_11.pdb
 OpenBabel01292518153D

 48 52  0  0  0  0  0  0  0  0999 V2000
   -9.4570   -3.9220  -22.2240 C   0  0  0  0  0  0  0  0  0  0  0  0
   -8.1740   -3.3010  -22.0240 N   0  0  0  0  0  0  0  0  0  0  0  0
   -8.0190   -2.2700  -21.1490 C   0  0  0  0  0  0  0  0  0  0  0  0
   -8.8910   -1.5910  -20.6540 O   0  0  0  0  0  0  0  0  0  0  0  0
   -6.6470   -2.1470  -20.9310 N   0  0  0  0  0  0  0  0  0  0  0  0
   -6.1170   -1.2460  -19.9840 C   0  0  0  0  0  0  0  0  0  0  0  0
   -6.5460   -1.3030  -18.6830 C   0  0  0  0  0  0  0  0  0  0  0  0
   -6.0520   -0.5300  -17.6860 N   0  0  0  0  0  0  0  0  0  0  0  0
   -5.1240    0.3390  -18.0170 C   0  0  0  0  0  0  0  0  0  0  0  0
   -4.6340    0.5210  -19.3420 C   0  0  0  0  0  0  0  0  0  0  0  0
   -3.6450    1.4970  -19.6350 C   0  0  0  0  0  0  0  0  0  0  0  0
   -3.2020    1.6760  -20.9160 C   0  0  0  0  0  0  0  0  0  0  0  0
   -3.7330    0.8960  -21.9720 C   0  0  0  0  0  0  0  0  0  0  0  0
   -4.6900   -0.0560  -21.7170 C   0  0  0  0  0  0  0  0  0  0  0  0
   -5.1490   -0.2800  -20.3820 C   0  0  0  0  0  0  0  0  0  0  0  0
   -5.0940   -0.6420  -22.5400 H   0  0  0  0  0  0  0  0  0  0  0  0
   -3.3780    1.0570  -22.9890 H   0  0  0  0  0  0  0  0  0  0  0  0
   -2.4420    2.4250  -21.1360 H   0  0  0  0  0  0  0  0  0  0  0  0
   -3.2620    2.0980  -18.8130 H   0  0  0  0  0  0  0  0  0  0  0  0
   -4.7060    0.9610  -17.2220 H   0  0  0  0  0  0  0  0  0  0  0  0
   -7.3230   -2.0120  -18.3990 H   0  0  0  0  0  0  0  0  0  0  0  0
   -5.9320   -3.1570  -21.5740 C   0  0  0  0  0  0  0  0  0  0  0  0
   -4.7460   -3.3530  -21.4670 O   0  0  0  0  0  0  0  0  0  0  0  0
   -6.9500   -3.9920  -22.3210 C   0  0  0  0  0  0  0  0  0  0  0  0
   -6.7300   -4.3120  -23.8130 C   0  0  0  0  0  0  0  0  0  0  0  0
   -6.5660   -5.7480  -23.4930 N   0  0  0  0  0  0  0  0  0  0  0  0
   -7.6410   -6.8680  -24.1460 S   0  0  0  0  0  0  0  0  0  0  0  0
   -9.0000   -6.3450  -24.0510 O   0  0  0  0  0  0  0  0  0  0  0  0
   -7.2960   -8.1140  -23.4900 O   0  0  0  0  0  0  0  0  0  0  0  0
   -7.2820   -6.8810  -25.8900 C   0  0  0  0  0  0  0  0  0  0  0  0
   -8.3860   -7.0360  -26.7300 C   0  0  0  0  0  0  0  0  0  0  0  0
   -8.2130   -6.9800  -28.1050 C   0  0  0  0  0  0  0  0  0  0  0  0
   -6.9420   -6.7720  -28.6340 C   0  0  0  0  0  0  0  0  0  0  0  0
   -5.8450   -6.6330  -27.7860 C   0  0  0  0  0  0  0  0  0  0  0  0
   -6.0040   -6.6910  -26.4040 C   0  0  0  0  0  0  0  0  0  0  0  0
   -5.1580   -6.5510  -25.7350 H   0  0  0  0  0  0  0  0  0  0  0  0
   -4.8580   -6.4670  -28.2070 H   0  0  0  0  0  0  0  0  0  0  0  0
   -6.8020   -6.7290  -29.7100 H   0  0  0  0  0  0  0  0  0  0  0  0
   -9.0760   -7.0880  -28.7570 H   0  0  0  0  0  0  0  0  0  0  0  0
   -9.3730   -7.1620  -26.2950 H   0  0  0  0  0  0  0  0  0  0  0  0
   -6.7890   -5.5070  -22.0390 C   0  0  0  0  0  0  0  0  0  0  0  0
   -7.6310   -6.0490  -21.5950 H   0  0  0  0  0  0  0  0  0  0  0  0
   -5.8900   -5.7190  -21.4630 H   0  0  0  0  0  0  0  0  0  0  0  0
   -7.6030   -4.0870  -24.4330 H   0  0  0  0  0  0  0  0  0  0  0  0
   -5.8320   -3.8780  -24.2540 H   0  0  0  0  0  0  0  0  0  0  0  0
  -10.2020   -3.2780  -21.7580 H   0  0  0  0  0  0  0  0  0  0  0  0
   -9.6620   -4.1060  -23.2840 H   0  0  0  0  0  0  0  0  0  0  0  0
   -9.4190   -4.8670  -21.6970 H   0  0  0  0  0  0  0  0  0  0  0  0
  1  2  1  0  0  0  0
  1 46  1  0  0  0  0
  1 47  1  0  0  0  0
  1 48  1  0  0  0  0
  2  3  1  0  0  0  0
  2 24  1  0  0  0  0
  3  4  2  0  0  0  0
  3  5  1  0  0  0  0
  5  6  1  0  0  0  0
  5 22  1  0  0  0  0
  6  7  2  0  0  0  0
  6 15  1  0  0  0  0
  7  8  1  0  0  0  0
  7 21  1  0  0  0  0
  8  9  2  0  0  0  0
  9 10  1  0  0  0  0
  9 20  1  0  0  0  0
 10 11  2  0  0  0  0
 10 15  1  0  0  0  0
 11 12  1  0  0  0  0
 11 19  1  0  0  0  0
 12 13  2  0  0  0  0
 12 18  1  0  0  0  0
 13 14  1  0  0  0  0
 13 17  1  0  0  0  0
 14 15  2  0  0  0  0
 14 16  1  0  0  0  0
 22 23  2  0  0  0  0
 22 24  1  0  0  0  0
 24 25  1  0  0  0  0
 24 41  1  0  0  0  0
 25 26  1  0  0  0  0
 25 44  1  0  0  0  0
 25 45  1  0  0  0  0
 26 27  1  0  0  0  0
 26 41  1  0  0  0  0
 27 28  2  0  0  0  0
 27 29  2  0  0  0  0
 27 30  1  0  0  0  0
 30 31  2  0  0  0  0
 30 35  1  0  0  0  0
 31 32  1  0  0  0  0
 31 40  1  0  0  0  0
 32 33  2  0  0  0  0
 32 39  1  0  0  0  0
 33 34  1  0  0  0  0
 33 38  1  0  0  0  0
 34 35  2  0  0  0  0
 34 37  1  0  0  0  0
 35 36  1  0  0  0  0
 41 42  1  0  0  0  0
 41 43  1  0  0  0  0
M  END
>  <MODEL>
       6

$$$$
best_conformers_11.pdb
 OpenBabel01292518153D

 48 52  0  0  0  0  0  0  0  0999 V2000
   -9.4560   -3.9260  -22.2200 C   0  0  0  0  0  0  0  0  0  0  0  0
   -8.1740   -3.3030  -22.0230 N   0  0  0  0  0  0  0  0  0  0  0  0
   -8.0190   -2.2720  -21.1480 C   0  0  0  0  0  0  0  0  0  0  0  0
   -8.8920   -1.5940  -20.6520 O   0  0  0  0  0  0  0  0  0  0  0  0
   -6.6470   -2.1470  -20.9310 N   0  0  0  0  0  0  0  0  0  0  0  0
   -6.1170   -1.2460  -19.9840 C   0  0  0  0  0  0  0  0  0  0  0  0
   -6.5460   -1.3030  -18.6820 C   0  0  0  0  0  0  0  0  0  0  0  0
   -6.0520   -0.5300  -17.6850 N   0  0  0  0  0  0  0  0  0  0  0  0
   -5.1240    0.3390  -18.0170 C   0  0  0  0  0  0  0  0  0  0  0  0
   -4.6340    0.5210  -19.3420 C   0  0  0  0  0  0  0  0  0  0  0  0
   -3.6450    1.4970  -19.6350 C   0  0  0  0  0  0  0  0  0  0  0  0
   -3.2020    1.6760  -20.9160 C   0  0  0  0  0  0  0  0  0  0  0  0
   -3.7330    0.8960  -21.9720 C   0  0  0  0  0  0  0  0  0  0  0  0
   -4.6900   -0.0560  -21.7170 C   0  0  0  0  0  0  0  0  0  0  0  0
   -5.1490   -0.2800  -20.3820 C   0  0  0  0  0  0  0  0  0  0  0  0
   -5.0940   -0.6420  -22.5400 H   0  0  0  0  0  0  0  0  0  0  0  0
   -3.3780    1.0570  -22.9890 H   0  0  0  0  0  0  0  0  0  0  0  0
   -2.4420    2.4250  -21.1360 H   0  0  0  0  0  0  0  0  0  0  0  0
   -3.2620    2.0980  -18.8130 H   0  0  0  0  0  0  0  0  0  0  0  0
   -4.7060    0.9610  -17.2220 H   0  0  0  0  0  0  0  0  0  0  0  0
   -7.3220   -2.0120  -18.3990 H   0  0  0  0  0  0  0  0  0  0  0  0
   -5.9320   -3.1580  -21.5740 C   0  0  0  0  0  0  0  0  0  0  0  0
   -4.7450   -3.3520  -21.4690 O   0  0  0  0  0  0  0  0  0  0  0  0
   -6.9490   -3.9940  -22.3200 C   0  0  0  0  0  0  0  0  0  0  0  0
   -6.7300   -4.3150  -23.8110 C   0  0  0  0  0  0  0  0  0  0  0  0
   -6.5650   -5.7500  -23.4890 N   0  0  0  0  0  0  0  0  0  0  0  0
   -7.6380   -6.8730  -24.1410 S   0  0  0  0  0  0  0  0  0  0  0  0
   -7.2900   -8.1160  -23.4830 O   0  0  0  0  0  0  0  0  0  0  0  0
   -8.9980   -6.3520  -24.0460 O   0  0  0  0  0  0  0  0  0  0  0  0
   -7.2810   -6.8870  -25.8860 C   0  0  0  0  0  0  0  0  0  0  0  0
   -6.0050   -6.6920  -26.4010 C   0  0  0  0  0  0  0  0  0  0  0  0
   -5.8470   -6.6350  -27.7840 C   0  0  0  0  0  0  0  0  0  0  0  0
   -6.9430   -6.7820  -28.6300 C   0  0  0  0  0  0  0  0  0  0  0  0
   -8.2120   -6.9960  -28.1000 C   0  0  0  0  0  0  0  0  0  0  0  0
   -8.3840   -7.0500  -26.7250 C   0  0  0  0  0  0  0  0  0  0  0  0
   -9.3710   -7.1800  -26.2890 H   0  0  0  0  0  0  0  0  0  0  0  0
   -9.0750   -7.1110  -28.7510 H   0  0  0  0  0  0  0  0  0  0  0  0
   -6.8040   -6.7420  -29.7060 H   0  0  0  0  0  0  0  0  0  0  0  0
   -4.8610   -6.4650  -28.2050 H   0  0  0  0  0  0  0  0  0  0  0  0
   -5.1580   -6.5460  -25.7330 H   0  0  0  0  0  0  0  0  0  0  0  0
   -6.7880   -5.5090  -22.0350 C   0  0  0  0  0  0  0  0  0  0  0  0
   -5.8880   -5.7190  -21.4600 H   0  0  0  0  0  0  0  0  0  0  0  0
   -7.6290   -6.0520  -21.5910 H   0  0  0  0  0  0  0  0  0  0  0  0
   -7.6040   -4.0930  -24.4310 H   0  0  0  0  0  0  0  0  0  0  0  0
   -5.8330   -3.8810  -24.2530 H   0  0  0  0  0  0  0  0  0  0  0  0
   -9.6620   -4.1130  -23.2800 H   0  0  0  0  0  0  0  0  0  0  0  0
   -9.4160   -4.8700  -21.6910 H   0  0  0  0  0  0  0  0  0  0  0  0
  -10.2010   -3.2830  -21.7540 H   0  0  0  0  0  0  0  0  0  0  0  0
  1  2  1  0  0  0  0
  1 46  1  0  0  0  0
  1 47  1  0  0  0  0
  1 48  1  0  0  0  0
  2  3  1  0  0  0  0
  2 24  1  0  0  0  0
  3  4  2  0  0  0  0
  3  5  1  0  0  0  0
  5  6  1  0  0  0  0
  5 22  1  0  0  0  0
  6  7  2  0  0  0  0
  6 15  1  0  0  0  0
  7  8  1  0  0  0  0
  7 21  1  0  0  0  0
  8  9  2  0  0  0  0
  9 10  1  0  0  0  0
  9 20  1  0  0  0  0
 10 11  2  0  0  0  0
 10 15  1  0  0  0  0
 11 12  1  0  0  0  0
 11 19  1  0  0  0  0
 12 13  2  0  0  0  0
 12 18  1  0  0  0  0
 13 14  1  0  0  0  0
 13 17  1  0  0  0  0
 14 15  2  0  0  0  0
 14 16  1  0  0  0  0
 22 23  2  0  0  0  0
 22 24  1  0  0  0  0
 24 25  1  0  0  0  0
 24 41  1  0  0  0  0
 25 26  1  0  0  0  0
 25 44  1  0  0  0  0
 25 45  1  0  0  0  0
 26 27  1  0  0  0  0
 26 41  1  0  0  0  0
 27 28  2  0  0  0  0
 27 29  2  0  0  0  0
 27 30  1  0  0  0  0
 30 31  2  0  0  0  0
 30 35  1  0  0  0  0
 31 32  1  0  0  0  0
 31 40  1  0  0  0  0
 32 33  2  0  0  0  0
 32 39  1  0  0  0  0
 33 34  1  0  0  0  0
 33 38  1  0  0  0  0
 34 35  2  0  0  0  0
 34 37  1  0  0  0  0
 35 36  1  0  0  0  0
 41 42  1  0  0  0  0
 41 43  1  0  0  0  0
M  END
>  <MODEL>
       7

$$$$
