best_conformers_2.pdb
 OpenBabel01292518153D

 60 65  0  0  1  0  0  0  0  0999 V2000
   -3.8280   -8.5000  -25.3470 C   0  0  0  0  0  0  0  0  0  0  0  0
   -4.5400   -7.2160  -25.6730 C   0  0  0  0  0  0  0  0  0  0  0  0
   -3.9410   -5.9750  -25.4610 C   0  0  0  0  0  0  0  0  0  0  0  0
   -4.5620   -4.8210  -25.7010 N   0  0  0  0  0  0  0  0  0  0  0  0
   -5.8150   -4.8890  -26.1580 C   0  0  0  0  0  0  0  0  0  0  0  0
   -6.5550   -3.5990  -26.4080 C   0  0  0  0  0  0  0  0  0  0  0  0
   -7.5490   -3.2790  -25.3880 N   0  0  0  0  0  0  0  0  0  0  0  0
   -7.0960   -2.4710  -24.2650 C   0  0  0  0  0  0  0  0  0  0  0  0
   -7.8790   -2.7110  -22.9610 C   0  0  2  0  0  0  0  0  0  0  0  0
   -7.5400   -1.5550  -22.0030 C   0  0  0  0  0  0  0  0  0  0  0  0
   -7.8700   -0.3900  -22.1140 O   0  0  0  0  0  0  0  0  0  0  0  0
   -6.7790   -2.0440  -20.9660 N   0  0  0  0  0  0  0  0  0  0  0  0
   -6.1750   -1.1890  -20.0100 C   0  0  0  0  0  0  0  0  0  0  0  0
   -6.5320   -1.2950  -18.6910 C   0  0  0  0  0  0  0  0  0  0  0  0
   -6.0240   -0.5350  -17.6900 N   0  0  0  0  0  0  0  0  0  0  0  0
   -5.1090    0.3480  -18.0180 C   0  0  0  0  0  0  0  0  0  0  0  0
   -4.6180    0.5400  -19.3410 C   0  0  0  0  0  0  0  0  0  0  0  0
   -3.6130    1.5010  -19.6370 C   0  0  0  0  0  0  0  0  0  0  0  0
   -3.1420    1.6470  -20.9120 C   0  0  0  0  0  0  0  0  0  0  0  0
   -3.6470    0.8320  -21.9510 C   0  0  0  0  0  0  0  0  0  0  0  0
   -4.6190   -0.1000  -21.6910 C   0  0  0  0  0  0  0  0  0  0  0  0
   -5.1510   -0.2570  -20.3800 C   0  0  0  0  0  0  0  0  0  0  0  0
   -5.0000   -0.7150  -22.5000 H   0  0  0  0  0  0  0  0  0  0  0  0
   -3.2760    0.9590  -22.9630 H   0  0  0  0  0  0  0  0  0  0  0  0
   -2.3860    2.3960  -21.1360 H   0  0  0  0  0  0  0  0  0  0  0  0
   -3.2390    2.1210  -18.8250 H   0  0  0  0  0  0  0  0  0  0  0  0
   -4.7120    0.9640  -17.2110 H   0  0  0  0  0  0  0  0  0  0  0  0
   -7.2830   -2.0250  -18.3910 H   0  0  0  0  0  0  0  0  0  0  0  0
   -6.4520   -3.4520  -21.0860 C   0  0  0  0  0  0  0  0  0  0  0  0
   -7.4530   -3.9770  -22.1310 C   0  0  2  0  0  0  0  0  0  0  0  0
   -6.9310   -5.1730  -22.9240 C   0  0  0  0  0  0  0  0  0  0  0  0
   -5.9810   -4.9410  -23.4180 H   0  0  0  0  0  0  0  0  0  0  0  0
   -7.6430   -5.4720  -23.7010 H   0  0  0  0  0  0  0  0  0  0  0  0
   -6.7620   -6.0290  -22.2620 H   0  0  0  0  0  0  0  0  0  0  0  0
   -8.3760   -4.2720  -21.6110 H   0  0  0  0  0  0  0  0  0  0  0  0
   -5.4160   -3.5920  -21.4310 H   0  0  0  0  0  0  0  0  0  0  0  0
   -6.5330   -3.9360  -20.1090 H   0  0  0  0  0  0  0  0  0  0  0  0
   -9.3540   -2.7350  -23.2900 C   0  0  0  0  0  0  0  0  0  0  0  0
  -10.2620   -2.4340  -22.2680 C   0  0  0  0  0  0  0  0  0  0  0  0
  -11.6030   -2.6070  -22.5130 C   0  0  0  0  0  0  0  0  0  0  0  0
  -12.5070   -2.2980  -21.5750 F   0  0  0  0  0  0  0  0  0  0  0  0
  -12.0770   -3.1040  -23.7140 C   0  0  0  0  0  0  0  0  0  0  0  0
  -11.1850   -3.3710  -24.7410 C   0  0  0  0  0  0  0  0  0  0  0  0
   -9.8170   -3.1890  -24.5340 C   0  0  0  0  0  0  0  0  0  0  0  0
   -8.8620   -3.5800  -25.6270 C   0  0  0  0  0  0  0  0  0  0  0  0
   -9.2180   -4.1500  -26.6530 O   0  0  0  0  0  0  0  0  0  0  0  0
  -11.5100   -3.7200  -25.7170 H   0  0  0  0  0  0  0  0  0  0  0  0
  -13.1460   -3.2720  -23.7630 H   0  0  0  0  0  0  0  0  0  0  0  0
   -9.9290   -2.0990  -21.2900 H   0  0  0  0  0  0  0  0  0  0  0  0
   -6.0370   -2.7190  -24.1200 H   0  0  0  0  0  0  0  0  0  0  0  0
   -7.2010   -1.3970  -24.4880 H   0  0  0  0  0  0  0  0  0  0  0  0
   -7.0820   -3.6490  -27.3640 H   0  0  0  0  0  0  0  0  0  0  0  0
   -5.8070   -2.8010  -26.4200 H   0  0  0  0  0  0  0  0  0  0  0  0
   -6.4010   -6.1250  -26.4050 C   0  0  0  0  0  0  0  0  0  0  0  0
   -5.7770   -7.2810  -26.1690 N   0  0  0  0  0  0  0  0  0  0  0  0
   -7.4050   -6.1680  -26.8210 H   0  0  0  0  0  0  0  0  0  0  0  0
   -2.9290   -5.9270  -25.0640 H   0  0  0  0  0  0  0  0  0  0  0  0
   -2.8380   -8.5320  -25.8190 H   0  0  0  0  0  0  0  0  0  0  0  0
   -3.6900   -8.6130  -24.2630 H   0  0  0  0  0  0  0  0  0  0  0  0
   -4.4310   -9.3300  -25.7060 H   0  0  0  0  0  0  0  0  0  0  0  0
  1  2  1  0  0  0  0
  1 58  1  0  0  0  0
  1 59  1  0  0  0  0
  1 60  1  0  0  0  0
  2  3  2  0  0  0  0
  2 55  1  0  0  0  0
  3  4  1  0  0  0  0
  3 57  1  0  0  0  0
  4  5  2  0  0  0  0
  5  6  1  0  0  0  0
  5 54  1  0  0  0  0
  6  7  1  0  0  0  0
  6 52  1  0  0  0  0
  6 53  1  0  0  0  0
  7  8  1  0  0  0  0
  7 45  1  0  0  0  0
  8  9  1  0  0  0  0
  8 50  1  0  0  0  0
  8 51  1  0  0  0  0
  9 10  1  1  0  0  0
  9 30  1  0  0  0  0
  9 38  1  0  0  0  0
 10 11  2  0  0  0  0
 10 12  1  0  0  0  0
 12 13  1  0  0  0  0
 12 29  1  0  0  0  0
 13 14  2  0  0  0  0
 13 22  1  0  0  0  0
 14 15  1  0  0  0  0
 14 28  1  0  0  0  0
 15 16  2  0  0  0  0
 16 17  1  0  0  0  0
 16 27  1  0  0  0  0
 17 18  2  0  0  0  0
 17 22  1  0  0  0  0
 18 19  1  0  0  0  0
 18 26  1  0  0  0  0
 19 20  2  0  0  0  0
 19 25  1  0  0  0  0
 20 21  1  0  0  0  0
 20 24  1  0  0  0  0
 21 22  2  0  0  0  0
 21 23  1  0  0  0  0
 29 30  1  0  0  0  0
 29 36  1  0  0  0  0
 29 37  1  0  0  0  0
 30 31  1  0  0  0  0
 30 35  1  1  0  0  0
 31 32  1  0  0  0  0
 31 33  1  0  0  0  0
 31 34  1  0  0  0  0
 38 39  2  0  0  0  0
 38 44  1  0  0  0  0
 39 40  1  0  0  0  0
 39 49  1  0  0  0  0
 40 41  1  0  0  0  0
 40 42  2  0  0  0  0
 42 43  1  0  0  0  0
 42 48  1  0  0  0  0
 43 44  2  0  0  0  0
 43 47  1  0  0  0  0
 44 45  1  0  0  0  0
 45 46  2  0  0  0  0
 54 55  2  0  0  0  0
 54 56  1  0  0  0  0
M  END
>  <MODEL>
       1

$$$$
best_conformers_2.pdb
 OpenBabel01292518153D

 60 65  0  0  1  0  0  0  0  0999 V2000
   -5.1660    0.3280  -29.9910 C   0  0  0  0  0  0  0  0  0  0  0  0
   -5.4770   -0.7900  -29.0340 C   0  0  0  0  0  0  0  0  0  0  0  0
   -4.8490   -0.8770  -27.7880 C   0  0  0  0  0  0  0  0  0  0  0  0
   -5.1270   -1.8310  -26.9040 N   0  0  0  0  0  0  0  0  0  0  0  0
   -6.0650   -2.7160  -27.2590 C   0  0  0  0  0  0  0  0  0  0  0  0
   -6.4460   -3.7950  -26.2810 C   0  0  0  0  0  0  0  0  0  0  0  0
   -7.4650   -3.3890  -25.3210 N   0  0  0  0  0  0  0  0  0  0  0  0
   -7.0490   -2.4950  -24.2550 C   0  0  0  0  0  0  0  0  0  0  0  0
   -7.8440   -2.7090  -22.9610 C   0  0  2  0  0  0  0  0  0  0  0  0
   -7.5160   -1.5510  -22.0030 C   0  0  0  0  0  0  0  0  0  0  0  0
   -7.8350   -0.3870  -22.1260 O   0  0  0  0  0  0  0  0  0  0  0  0
   -6.7670   -2.0440  -20.9620 N   0  0  0  0  0  0  0  0  0  0  0  0
   -6.1670   -1.1920  -20.0060 C   0  0  0  0  0  0  0  0  0  0  0  0
   -6.5280   -1.2980  -18.6880 C   0  0  0  0  0  0  0  0  0  0  0  0
   -6.0270   -0.5340  -17.6870 N   0  0  0  0  0  0  0  0  0  0  0  0
   -5.1120    0.3500  -18.0150 C   0  0  0  0  0  0  0  0  0  0  0  0
   -4.6190    0.5390  -19.3390 C   0  0  0  0  0  0  0  0  0  0  0  0
   -3.6150    1.5020  -19.6340 C   0  0  0  0  0  0  0  0  0  0  0  0
   -3.1420    1.6470  -20.9090 C   0  0  0  0  0  0  0  0  0  0  0  0
   -3.6450    0.8320  -21.9500 C   0  0  0  0  0  0  0  0  0  0  0  0
   -4.6160   -0.1010  -21.6910 C   0  0  0  0  0  0  0  0  0  0  0  0
   -5.1470   -0.2580  -20.3770 C   0  0  0  0  0  0  0  0  0  0  0  0
   -4.9960   -0.7160  -22.5020 H   0  0  0  0  0  0  0  0  0  0  0  0
   -3.2710    0.9570  -22.9620 H   0  0  0  0  0  0  0  0  0  0  0  0
   -2.3850    2.3940  -21.1340 H   0  0  0  0  0  0  0  0  0  0  0  0
   -3.2410    2.1220  -18.8240 H   0  0  0  0  0  0  0  0  0  0  0  0
   -4.7100    0.9660  -17.2110 H   0  0  0  0  0  0  0  0  0  0  0  0
   -7.2830   -2.0260  -18.3930 H   0  0  0  0  0  0  0  0  0  0  0  0
   -6.4500   -3.4540  -21.0740 C   0  0  0  0  0  0  0  0  0  0  0  0
   -7.4540   -3.9740  -22.1160 C   0  0  2  0  0  0  0  0  0  0  0  0
   -6.9400   -5.1870  -22.8920 C   0  0  0  0  0  0  0  0  0  0  0  0
   -6.0020   -4.9560  -23.4100 H   0  0  0  0  0  0  0  0  0  0  0  0
   -7.6610   -5.5100  -23.6480 H   0  0  0  0  0  0  0  0  0  0  0  0
   -6.7450   -6.0310  -22.2230 H   0  0  0  0  0  0  0  0  0  0  0  0
   -8.3810   -4.2600  -21.6000 H   0  0  0  0  0  0  0  0  0  0  0  0
   -6.5360   -3.9330  -20.0970 H   0  0  0  0  0  0  0  0  0  0  0  0
   -5.4150   -3.6020  -21.4150 H   0  0  0  0  0  0  0  0  0  0  0  0
   -9.3050   -2.7160  -23.3240 C   0  0  0  0  0  0  0  0  0  0  0  0
  -10.2210   -2.4170  -22.3090 C   0  0  0  0  0  0  0  0  0  0  0  0
  -11.5640   -2.5610  -22.5590 C   0  0  0  0  0  0  0  0  0  0  0  0
  -12.5010   -2.2350  -21.6570 F   0  0  0  0  0  0  0  0  0  0  0  0
  -12.0120   -3.0570  -23.7650 C   0  0  0  0  0  0  0  0  0  0  0  0
  -11.1230   -3.3100  -24.7910 C   0  0  0  0  0  0  0  0  0  0  0  0
   -9.7540   -3.1490  -24.5760 C   0  0  0  0  0  0  0  0  0  0  0  0
   -8.7840   -3.5400  -25.6500 C   0  0  0  0  0  0  0  0  0  0  0  0
   -9.1510   -3.9880  -26.7300 O   0  0  0  0  0  0  0  0  0  0  0  0
  -11.4670   -3.6520  -25.7620 H   0  0  0  0  0  0  0  0  0  0  0  0
  -13.0730   -3.2400  -23.8010 H   0  0  0  0  0  0  0  0  0  0  0  0
   -9.8880   -2.0670  -21.3430 H   0  0  0  0  0  0  0  0  0  0  0  0
   -5.9840   -2.6670  -24.0820 H   0  0  0  0  0  0  0  0  0  0  0  0
   -7.1870   -1.4490  -24.5580 H   0  0  0  0  0  0  0  0  0  0  0  0
   -6.8270   -4.6730  -26.8080 H   0  0  0  0  0  0  0  0  0  0  0  0
   -5.5490   -4.0580  -25.7110 H   0  0  0  0  0  0  0  0  0  0  0  0
   -6.6690   -2.6490  -28.5060 C   0  0  0  0  0  0  0  0  0  0  0  0
   -6.3810   -1.6990  -29.3980 N   0  0  0  0  0  0  0  0  0  0  0  0
   -7.4070   -3.3990  -28.7710 H   0  0  0  0  0  0  0  0  0  0  0  0
   -4.1070   -0.1370  -27.4950 H   0  0  0  0  0  0  0  0  0  0  0  0
   -5.5470    1.2840  -29.6130 H   0  0  0  0  0  0  0  0  0  0  0  0
   -5.6290    0.1270  -30.9590 H   0  0  0  0  0  0  0  0  0  0  0  0
   -4.0850    0.4410  -30.1230 H   0  0  0  0  0  0  0  0  0  0  0  0
  1  2  1  0  0  0  0
  1 58  1  0  0  0  0
  1 59  1  0  0  0  0
  1 60  1  0  0  0  0
  2  3  2  0  0  0  0
  2 55  1  0  0  0  0
  3  4  1  0  0  0  0
  3 57  1  0  0  0  0
  4  5  2  0  0  0  0
  5  6  1  0  0  0  0
  5 54  1  0  0  0  0
  6  7  1  0  0  0  0
  6 52  1  0  0  0  0
  6 53  1  0  0  0  0
  7  8  1  0  0  0  0
  7 45  1  0  0  0  0
  8  9  1  0  0  0  0
  8 50  1  0  0  0  0
  8 51  1  0  0  0  0
  9 10  1  1  0  0  0
  9 30  1  0  0  0  0
  9 38  1  0  0  0  0
 10 11  2  0  0  0  0
 10 12  1  0  0  0  0
 12 13  1  0  0  0  0
 12 29  1  0  0  0  0
 13 14  2  0  0  0  0
 13 22  1  0  0  0  0
 14 15  1  0  0  0  0
 14 28  1  0  0  0  0
 15 16  2  0  0  0  0
 16 17  1  0  0  0  0
 16 27  1  0  0  0  0
 17 18  2  0  0  0  0
 17 22  1  0  0  0  0
 18 19  1  0  0  0  0
 18 26  1  0  0  0  0
 19 20  2  0  0  0  0
 19 25  1  0  0  0  0
 20 21  1  0  0  0  0
 20 24  1  0  0  0  0
 21 22  2  0  0  0  0
 21 23  1  0  0  0  0
 29 30  1  0  0  0  0
 29 36  1  0  0  0  0
 29 37  1  0  0  0  0
 30 31  1  0  0  0  0
 30 35  1  1  0  0  0
 31 32  1  0  0  0  0
 31 33  1  0  0  0  0
 31 34  1  0  0  0  0
 38 39  2  0  0  0  0
 38 44  1  0  0  0  0
 39 40  1  0  0  0  0
 39 49  1  0  0  0  0
 40 41  1  0  0  0  0
 40 42  2  0  0  0  0
 42 43  1  0  0  0  0
 42 48  1  0  0  0  0
 43 44  2  0  0  0  0
 43 47  1  0  0  0  0
 44 45  1  0  0  0  0
 45 46  2  0  0  0  0
 54 55  2  0  0  0  0
 54 56  1  0  0  0  0
M  END
>  <MODEL>
       2

$$$$
