best_conformers_10.pdb
 OpenBabel01292518153D

 57 62  0  0  1  0  0  0  0  0999 V2000
   -6.9630   -5.2040  -22.8490 C   0  0  0  0  0  0  0  0  0  0  0  0
   -7.4460   -3.9750  -22.0840 C   0  0  1  0  0  0  0  0  0  0  0  0
   -6.4220   -3.4500  -21.0720 C   0  0  0  0  0  0  0  0  0  0  0  0
   -6.7540   -2.0460  -20.9560 N   0  0  0  0  0  0  0  0  0  0  0  0
   -6.1570   -1.1970  -20.0030 C   0  0  0  0  0  0  0  0  0  0  0  0
   -6.5300   -1.3070  -18.6880 C   0  0  0  0  0  0  0  0  0  0  0  0
   -6.0390   -0.5420  -17.6860 N   0  0  0  0  0  0  0  0  0  0  0  0
   -5.1250    0.3430  -18.0160 C   0  0  0  0  0  0  0  0  0  0  0  0
   -4.6280    0.5340  -19.3380 C   0  0  0  0  0  0  0  0  0  0  0  0
   -3.6280    1.4980  -19.6270 C   0  0  0  0  0  0  0  0  0  0  0  0
   -3.1460    1.6470  -20.8980 C   0  0  0  0  0  0  0  0  0  0  0  0
   -3.6400    0.8340  -21.9460 C   0  0  0  0  0  0  0  0  0  0  0  0
   -4.6110   -0.1000  -21.6960 C   0  0  0  0  0  0  0  0  0  0  0  0
   -5.1450   -0.2620  -20.3810 C   0  0  0  0  0  0  0  0  0  0  0  0
   -4.9830   -0.7080  -22.5160 H   0  0  0  0  0  0  0  0  0  0  0  0
   -3.2530    0.9620  -22.9530 H   0  0  0  0  0  0  0  0  0  0  0  0
   -2.3890    2.3950  -21.1140 H   0  0  0  0  0  0  0  0  0  0  0  0
   -3.2630    2.1170  -18.8110 H   0  0  0  0  0  0  0  0  0  0  0  0
   -4.7180    0.9590  -17.2140 H   0  0  0  0  0  0  0  0  0  0  0  0
   -7.2890   -2.0390  -18.4100 H   0  0  0  0  0  0  0  0  0  0  0  0
   -7.4860   -1.5520  -22.0050 C   0  0  0  0  0  0  0  0  0  0  0  0
   -7.7990   -0.3840  -22.1220 O   0  0  0  0  0  0  0  0  0  0  0  0
   -7.8360   -2.7170  -22.9430 C   0  0  1  0  0  0  0  0  0  0  0  0
   -7.0500   -2.5160  -24.2420 C   0  0  0  0  0  0  0  0  0  0  0  0
   -7.4960   -3.4250  -25.2830 N   0  0  0  0  0  0  0  0  0  0  0  0
   -6.5000   -3.8670  -26.2410 C   0  0  0  0  0  0  0  0  0  0  0  0
   -6.1700   -2.8280  -27.2710 C   0  0  0  0  0  0  0  0  0  0  0  0
   -5.3140   -1.7790  -27.2150 C   0  0  0  0  0  0  0  0  0  0  0  0
   -5.4030   -1.1130  -28.4190 N   0  3  0  0  0  0  0  0  0  0  0  0
   -6.3010   -1.7330  -29.1900 C   0  0  0  0  0  0  0  0  0  0  0  0
   -6.7900   -2.7780  -28.5090 N   0  0  0  0  0  0  0  0  0  0  0  0
   -7.5560   -3.3910  -28.7980 H   0  0  0  0  0  0  0  0  0  0  0  0
   -6.5690   -1.4370  -30.1920 H   0  0  0  0  0  0  0  0  0  0  0  0
   -4.9100   -0.2520  -28.6320 H   0  0  0  0  0  0  0  0  0  0  0  0
   -4.6330   -1.4340  -26.4460 H   0  0  0  0  0  0  0  0  0  0  0  0
   -5.6030   -4.1350  -25.6700 H   0  0  0  0  0  0  0  0  0  0  0  0
   -6.8970   -4.7710  -26.7120 H   0  0  0  0  0  0  0  0  0  0  0  0
   -8.8130   -3.4970  -25.6500 C   0  0  0  0  0  0  0  0  0  0  0  0
   -9.1610   -3.8650  -26.7710 O   0  0  0  0  0  0  0  0  0  0  0  0
   -9.7670   -3.1500  -24.5420 C   0  0  0  0  0  0  0  0  0  0  0  0
  -11.1310   -3.3480  -24.7480 C   0  0  0  0  0  0  0  0  0  0  0  0
  -12.0180   -3.0890  -23.7150 C   0  0  0  0  0  0  0  0  0  0  0  0
  -11.5350   -2.5740  -22.5220 C   0  0  0  0  0  0  0  0  0  0  0  0
  -12.4460   -2.2840  -21.5880 F   0  0  0  0  0  0  0  0  0  0  0  0
  -10.1920   -2.3820  -22.2730 C   0  0  0  0  0  0  0  0  0  0  0  0
   -9.2980   -2.7260  -23.2900 C   0  0  0  0  0  0  0  0  0  0  0  0
   -9.8240   -2.0090  -21.3180 H   0  0  0  0  0  0  0  0  0  0  0  0
  -13.0840   -3.2870  -23.7600 H   0  0  0  0  0  0  0  0  0  0  0  0
  -11.4640   -3.7060  -25.7170 H   0  0  0  0  0  0  0  0  0  0  0  0
   -7.1950   -1.4680  -24.5480 H   0  0  0  0  0  0  0  0  0  0  0  0
   -5.9800   -2.6840  -24.0600 H   0  0  0  0  0  0  0  0  0  0  0  0
   -6.4760   -3.9250  -20.0900 H   0  0  0  0  0  0  0  0  0  0  0  0
   -5.3980   -3.5830  -21.4480 H   0  0  0  0  0  0  0  0  0  0  0  0
   -8.3660   -4.2370  -21.5440 H   0  0  0  0  0  0  0  0  0  0  0  0
   -6.0290   -4.9860  -23.3780 H   0  0  0  0  0  0  0  0  0  0  0  0
   -6.7690   -6.0390  -22.1690 H   0  0  0  0  0  0  0  0  0  0  0  0
   -7.7020   -5.5260  -23.5870 H   0  0  0  0  0  0  0  0  0  0  0  0
  1  2  1  0  0  0  0
  1 55  1  0  0  0  0
  1 56  1  0  0  0  0
  1 57  1  0  0  0  0
  2  3  1  0  0  0  0
  2 23  1  0  0  0  0
  2 54  1  1  0  0  0
  3  4  1  0  0  0  0
  3 52  1  0  0  0  0
  3 53  1  0  0  0  0
  4  5  1  0  0  0  0
  4 21  1  0  0  0  0
  5  6  2  0  0  0  0
  5 14  1  0  0  0  0
  6  7  1  0  0  0  0
  6 20  1  0  0  0  0
  7  8  2  0  0  0  0
  8  9  1  0  0  0  0
  8 19  1  0  0  0  0
  9 10  2  0  0  0  0
  9 14  1  0  0  0  0
 10 11  1  0  0  0  0
 10 18  1  0  0  0  0
 11 12  2  0  0  0  0
 11 17  1  0  0  0  0
 12 13  1  0  0  0  0
 12 16  1  0  0  0  0
 13 14  2  0  0  0  0
 13 15  1  0  0  0  0
 21 22  2  0  0  0  0
 23 21  1  1  0  0  0
 23 24  1  0  0  0  0
 23 46  1  0  0  0  0
 24 25  1  0  0  0  0
 24 50  1  0  0  0  0
 24 51  1  0  0  0  0
 25 26  1  0  0  0  0
 25 38  1  0  0  0  0
 26 27  1  0  0  0  0
 26 36  1  0  0  0  0
 26 37  1  0  0  0  0
 27 28  2  0  0  0  0
 27 31  1  0  0  0  0
 28 29  1  0  0  0  0
 28 35  1  0  0  0  0
 29 30  2  0  0  0  0
 29 34  1  0  0  0  0
 30 31  1  0  0  0  0
 30 33  1  0  0  0  0
 31 32  1  0  0  0  0
 38 39  2  0  0  0  0
 38 40  1  0  0  0  0
 40 41  2  0  0  0  0
 40 46  1  0  0  0  0
 41 42  1  0  0  0  0
 41 49  1  0  0  0  0
 42 43  2  0  0  0  0
 42 48  1  0  0  0  0
 43 44  1  0  0  0  0
 43 45  1  0  0  0  0
 45 46  2  0  0  0  0
 45 47  1  0  0  0  0
M  CHG  1  29   1
M  END
>  <MODEL>
       1

$$$$
best_conformers_10.pdb
 OpenBabel01292518153D

 57 62  0  0  1  0  0  0  0  0999 V2000
   -6.9740   -5.1770  -22.8940 C   0  0  0  0  0  0  0  0  0  0  0  0
   -7.4830   -3.9710  -22.1110 C   0  0  1  0  0  0  0  0  0  0  0  0
   -6.4730   -3.4500  -21.0760 C   0  0  0  0  0  0  0  0  0  0  0  0
   -6.7830   -2.0380  -20.9670 N   0  0  0  0  0  0  0  0  0  0  0  0
   -6.1770   -1.1870  -20.0100 C   0  0  0  0  0  0  0  0  0  0  0  0
   -6.5310   -1.2940  -18.6910 C   0  0  0  0  0  0  0  0  0  0  0  0
   -6.0220   -0.5330  -17.6890 N   0  0  0  0  0  0  0  0  0  0  0  0
   -5.1080    0.3500  -18.0170 C   0  0  0  0  0  0  0  0  0  0  0  0
   -4.6170    0.5410  -19.3400 C   0  0  0  0  0  0  0  0  0  0  0  0
   -3.6120    1.5030  -19.6370 C   0  0  0  0  0  0  0  0  0  0  0  0
   -3.1420    1.6480  -20.9120 C   0  0  0  0  0  0  0  0  0  0  0  0
   -3.6470    0.8320  -21.9510 C   0  0  0  0  0  0  0  0  0  0  0  0
   -4.6170   -0.1000  -21.6900 C   0  0  0  0  0  0  0  0  0  0  0  0
   -5.1500   -0.2570  -20.3780 C   0  0  0  0  0  0  0  0  0  0  0  0
   -5.0000   -0.7170  -22.4970 H   0  0  0  0  0  0  0  0  0  0  0  0
   -3.2770    0.9580  -22.9630 H   0  0  0  0  0  0  0  0  0  0  0  0
   -2.3850    2.3960  -21.1380 H   0  0  0  0  0  0  0  0  0  0  0  0
   -3.2370    2.1230  -18.8260 H   0  0  0  0  0  0  0  0  0  0  0  0
   -4.7100    0.9670  -17.2100 H   0  0  0  0  0  0  0  0  0  0  0  0
   -7.2820   -2.0220  -18.3880 H   0  0  0  0  0  0  0  0  0  0  0  0
   -7.5450   -1.5490  -22.0010 C   0  0  0  0  0  0  0  0  0  0  0  0
   -7.8600   -0.3810  -22.1210 O   0  0  0  0  0  0  0  0  0  0  0  0
   -7.9020   -2.7090  -22.9530 C   0  0  1  0  0  0  0  0  0  0  0  0
   -7.1260   -2.4750  -24.2600 C   0  0  0  0  0  0  0  0  0  0  0  0
   -7.5860   -3.2770  -25.3860 N   0  0  0  0  0  0  0  0  0  0  0  0
   -6.6070   -3.6500  -26.4020 C   0  0  0  0  0  0  0  0  0  0  0  0
   -6.0070   -5.0190  -26.2380 C   0  0  0  0  0  0  0  0  0  0  0  0
   -4.7640   -5.3950  -25.8410 C   0  0  0  0  0  0  0  0  0  0  0  0
   -4.7330   -6.7760  -25.8130 N   0  3  0  0  0  0  0  0  0  0  0  0
   -5.9310   -7.2300  -26.2000 C   0  0  0  0  0  0  0  0  0  0  0  0
   -6.7260   -6.1800  -26.4690 N   0  0  0  0  0  0  0  0  0  0  0  0
   -7.6970   -6.1940  -26.7840 H   0  0  0  0  0  0  0  0  0  0  0  0
   -6.2040   -8.2680  -26.2650 H   0  0  0  0  0  0  0  0  0  0  0  0
   -3.9340   -7.3260  -25.5150 H   0  0  0  0  0  0  0  0  0  0  0  0
   -3.8980   -4.8140  -25.5470 H   0  0  0  0  0  0  0  0  0  0  0  0
   -5.8000   -2.9150  -26.3550 H   0  0  0  0  0  0  0  0  0  0  0  0
   -7.1100   -3.5590  -27.3710 H   0  0  0  0  0  0  0  0  0  0  0  0
   -8.8980   -3.5780  -25.6130 C   0  0  0  0  0  0  0  0  0  0  0  0
   -9.2450   -4.1850  -26.6270 O   0  0  0  0  0  0  0  0  0  0  0  0
   -9.8500   -3.1610  -24.5250 C   0  0  0  0  0  0  0  0  0  0  0  0
  -11.2220   -3.3140  -24.7330 C   0  0  0  0  0  0  0  0  0  0  0  0
  -12.1080   -3.0310  -23.7070 C   0  0  0  0  0  0  0  0  0  0  0  0
  -11.6220   -2.5560  -22.5020 C   0  0  0  0  0  0  0  0  0  0  0  0
  -12.5270   -2.2490  -21.5660 F   0  0  0  0  0  0  0  0  0  0  0  0
  -10.2770   -2.4100  -22.2510 C   0  0  0  0  0  0  0  0  0  0  0  0
   -9.3770   -2.7200  -23.2780 C   0  0  0  0  0  0  0  0  0  0  0  0
   -9.9390   -2.0870  -21.2700 H   0  0  0  0  0  0  0  0  0  0  0  0
  -13.1800   -3.1600  -23.7390 H   0  0  0  0  0  0  0  0  0  0  0  0
  -11.5520   -3.6610  -25.7070 H   0  0  0  0  0  0  0  0  0  0  0  0
   -7.2110   -1.4000  -24.4810 H   0  0  0  0  0  0  0  0  0  0  0  0
   -6.0700   -2.7280  -24.0980 H   0  0  0  0  0  0  0  0  0  0  0  0
   -6.5550   -3.9260  -20.0950 H   0  0  0  0  0  0  0  0  0  0  0  0
   -5.4390   -3.6110  -21.4170 H   0  0  0  0  0  0  0  0  0  0  0  0
   -8.4060   -4.2570  -21.5900 H   0  0  0  0  0  0  0  0  0  0  0  0
   -6.0300   -4.9520  -23.4050 H   0  0  0  0  0  0  0  0  0  0  0  0
   -6.7970   -6.0300  -22.2320 H   0  0  0  0  0  0  0  0  0  0  0  0
   -7.7050   -5.4770  -23.6490 H   0  0  0  0  0  0  0  0  0  0  0  0
  1  2  1  0  0  0  0
  1 55  1  0  0  0  0
  1 56  1  0  0  0  0
  1 57  1  0  0  0  0
  2  3  1  0  0  0  0
  2 23  1  0  0  0  0
  2 54  1  1  0  0  0
  3  4  1  0  0  0  0
  3 52  1  0  0  0  0
  3 53  1  0  0  0  0
  4  5  1  0  0  0  0
  4 21  1  0  0  0  0
  5  6  2  0  0  0  0
  5 14  1  0  0  0  0
  6  7  1  0  0  0  0
  6 20  1  0  0  0  0
  7  8  2  0  0  0  0
  8  9  1  0  0  0  0
  8 19  1  0  0  0  0
  9 10  2  0  0  0  0
  9 14  1  0  0  0  0
 10 11  1  0  0  0  0
 10 18  1  0  0  0  0
 11 12  2  0  0  0  0
 11 17  1  0  0  0  0
 12 13  1  0  0  0  0
 12 16  1  0  0  0  0
 13 14  2  0  0  0  0
 13 15  1  0  0  0  0
 21 22  2  0  0  0  0
 23 21  1  1  0  0  0
 23 24  1  0  0  0  0
 23 46  1  0  0  0  0
 24 25  1  0  0  0  0
 24 50  1  0  0  0  0
 24 51  1  0  0  0  0
 25 26  1  0  0  0  0
 25 38  1  0  0  0  0
 26 27  1  0  0  0  0
 26 36  1  0  0  0  0
 26 37  1  0  0  0  0
 27 28  2  0  0  0  0
 27 31  1  0  0  0  0
 28 29  1  0  0  0  0
 28 35  1  0  0  0  0
 29 30  2  0  0  0  0
 29 34  1  0  0  0  0
 30 31  1  0  0  0  0
 30 33  1  0  0  0  0
 31 32  1  0  0  0  0
 38 39  2  0  0  0  0
 38 40  1  0  0  0  0
 40 41  2  0  0  0  0
 40 46  1  0  0  0  0
 41 42  1  0  0  0  0
 41 49  1  0  0  0  0
 42 43  2  0  0  0  0
 42 48  1  0  0  0  0
 43 44  1  0  0  0  0
 43 45  1  0  0  0  0
 45 46  2  0  0  0  0
 45 47  1  0  0  0  0
M  CHG  1  29   1
M  END
>  <MODEL>
       2

$$$$
best_conformers_10.pdb
 OpenBabel01292518153D

 57 62  0  0  1  0  0  0  0  0999 V2000
   -6.9600   -5.2010  -22.8400 C   0  0  0  0  0  0  0  0  0  0  0  0
   -7.4310   -3.9690  -22.0760 C   0  0  1  0  0  0  0  0  0  0  0  0
   -6.3980   -3.4490  -21.0730 C   0  0  0  0  0  0  0  0  0  0  0  0
   -6.7370   -2.0500  -20.9460 N   0  0  0  0  0  0  0  0  0  0  0  0
   -6.1460   -1.2020  -19.9940 C   0  0  0  0  0  0  0  0  0  0  0  0
   -6.5260   -1.3100  -18.6820 C   0  0  0  0  0  0  0  0  0  0  0  0
   -6.0420   -0.5410  -17.6790 N   0  0  0  0  0  0  0  0  0  0  0  0
   -5.1280    0.3440  -18.0100 C   0  0  0  0  0  0  0  0  0  0  0  0
   -4.6300    0.5340  -19.3330 C   0  0  0  0  0  0  0  0  0  0  0  0
   -3.6330    1.5010  -19.6210 C   0  0  0  0  0  0  0  0  0  0  0  0
   -3.1510    1.6480  -20.8920 C   0  0  0  0  0  0  0  0  0  0  0  0
   -3.6410    0.8370  -21.9410 C   0  0  0  0  0  0  0  0  0  0  0  0
   -4.6120   -0.0990  -21.6930 C   0  0  0  0  0  0  0  0  0  0  0  0
   -5.1410   -0.2630  -20.3760 C   0  0  0  0  0  0  0  0  0  0  0  0
   -4.9800   -0.7060  -22.5170 H   0  0  0  0  0  0  0  0  0  0  0  0
   -3.2480    0.9620  -22.9480 H   0  0  0  0  0  0  0  0  0  0  0  0
   -2.3900    2.3940  -21.1060 H   0  0  0  0  0  0  0  0  0  0  0  0
   -3.2680    2.1180  -18.8060 H   0  0  0  0  0  0  0  0  0  0  0  0
   -4.7170    0.9610  -17.2120 H   0  0  0  0  0  0  0  0  0  0  0  0
   -7.2900   -2.0410  -18.4160 H   0  0  0  0  0  0  0  0  0  0  0  0
   -7.4790   -1.5550  -21.9850 C   0  0  0  0  0  0  0  0  0  0  0  0
   -7.7920   -0.3850  -22.1060 O   0  0  0  0  0  0  0  0  0  0  0  0
   -7.8320   -2.7060  -22.9210 C   0  0  1  0  0  0  0  0  0  0  0  0
   -7.0480   -2.4820  -24.2210 C   0  0  0  0  0  0  0  0  0  0  0  0
   -7.4920   -3.3890  -25.2610 N   0  0  0  0  0  0  0  0  0  0  0  0
   -6.4880   -3.8320  -26.2100 C   0  0  0  0  0  0  0  0  0  0  0  0
   -6.1930   -2.8070  -27.2550 C   0  0  0  0  0  0  0  0  0  0  0  0
   -6.7800   -2.7040  -28.4590 C   0  0  0  0  0  0  0  0  0  0  0  0
   -6.2400   -1.6130  -29.1020 N   0  3  0  0  0  0  0  0  0  0  0  0
   -5.3510   -1.0370  -28.2830 C   0  0  0  0  0  0  0  0  0  0  0  0
   -5.3060   -1.7440  -27.1410 N   0  0  0  0  0  0  0  0  0  0  0  0
   -4.7430   -1.5280  -26.3250 H   0  0  0  0  0  0  0  0  0  0  0  0
   -4.7900   -0.1460  -28.5040 H   0  0  0  0  0  0  0  0  0  0  0  0
   -6.4830   -1.3230  -30.0370 H   0  0  0  0  0  0  0  0  0  0  0  0
   -7.5830   -3.2950  -28.8660 H   0  0  0  0  0  0  0  0  0  0  0  0
   -6.8790   -4.7310  -26.6920 H   0  0  0  0  0  0  0  0  0  0  0  0
   -5.5890   -4.1080  -25.6440 H   0  0  0  0  0  0  0  0  0  0  0  0
   -8.8170   -3.5100  -25.5990 C   0  0  0  0  0  0  0  0  0  0  0  0
   -9.1950   -3.9180  -26.6890 O   0  0  0  0  0  0  0  0  0  0  0  0
   -9.7680   -3.1640  -24.4940 C   0  0  0  0  0  0  0  0  0  0  0  0
  -11.1330   -3.3680  -24.7040 C   0  0  0  0  0  0  0  0  0  0  0  0
  -12.0270   -3.1120  -23.6760 C   0  0  0  0  0  0  0  0  0  0  0  0
  -11.5400   -2.5970  -22.4810 C   0  0  0  0  0  0  0  0  0  0  0  0
  -12.4330   -2.3290  -21.5210 F   0  0  0  0  0  0  0  0  0  0  0  0
  -10.2010   -2.3800  -22.2470 C   0  0  0  0  0  0  0  0  0  0  0  0
   -9.2980   -2.7140  -23.2550 C   0  0  0  0  0  0  0  0  0  0  0  0
   -9.8340   -2.0060  -21.2960 H   0  0  0  0  0  0  0  0  0  0  0  0
  -13.0890   -3.3360  -23.7220 H   0  0  0  0  0  0  0  0  0  0  0  0
  -11.4530   -3.7360  -25.6780 H   0  0  0  0  0  0  0  0  0  0  0  0
   -7.1970   -1.4350  -24.5260 H   0  0  0  0  0  0  0  0  0  0  0  0
   -5.9700   -2.6200  -24.0600 H   0  0  0  0  0  0  0  0  0  0  0  0
   -5.3770   -3.5700  -21.4650 H   0  0  0  0  0  0  0  0  0  0  0  0
   -6.4420   -3.9330  -20.0930 H   0  0  0  0  0  0  0  0  0  0  0  0
   -8.3370   -4.2350  -21.5200 H   0  0  0  0  0  0  0  0  0  0  0  0
   -7.7090   -5.5220  -23.5690 H   0  0  0  0  0  0  0  0  0  0  0  0
   -6.7660   -6.0350  -22.1550 H   0  0  0  0  0  0  0  0  0  0  0  0
   -6.0280   -4.9860  -23.3760 H   0  0  0  0  0  0  0  0  0  0  0  0
  1  2  1  0  0  0  0
  1 55  1  0  0  0  0
  1 56  1  0  0  0  0
  1 57  1  0  0  0  0
  2  3  1  0  0  0  0
  2 23  1  0  0  0  0
  2 54  1  1  0  0  0
  3  4  1  0  0  0  0
  3 52  1  0  0  0  0
  3 53  1  0  0  0  0
  4  5  1  0  0  0  0
  4 21  1  0  0  0  0
  5  6  2  0  0  0  0
  5 14  1  0  0  0  0
  6  7  1  0  0  0  0
  6 20  1  0  0  0  0
  7  8  2  0  0  0  0
  8  9  1  0  0  0  0
  8 19  1  0  0  0  0
  9 10  2  0  0  0  0
  9 14  1  0  0  0  0
 10 11  1  0  0  0  0
 10 18  1  0  0  0  0
 11 12  2  0  0  0  0
 11 17  1  0  0  0  0
 12 13  1  0  0  0  0
 12 16  1  0  0  0  0
 13 14  2  0  0  0  0
 13 15  1  0  0  0  0
 21 22  2  0  0  0  0
 23 21  1  1  0  0  0
 23 24  1  0  0  0  0
 23 46  1  0  0  0  0
 24 25  1  0  0  0  0
 24 50  1  0  0  0  0
 24 51  1  0  0  0  0
 25 26  1  0  0  0  0
 25 38  1  0  0  0  0
 26 27  1  0  0  0  0
 26 36  1  0  0  0  0
 26 37  1  0  0  0  0
 27 28  2  0  0  0  0
 27 31  1  0  0  0  0
 28 29  1  0  0  0  0
 28 35  1  0  0  0  0
 29 30  2  0  0  0  0
 29 34  1  0  0  0  0
 30 31  1  0  0  0  0
 30 33  1  0  0  0  0
 31 32  1  0  0  0  0
 38 39  2  0  0  0  0
 38 40  1  0  0  0  0
 40 41  2  0  0  0  0
 40 46  1  0  0  0  0
 41 42  1  0  0  0  0
 41 49  1  0  0  0  0
 42 43  2  0  0  0  0
 42 48  1  0  0  0  0
 43 44  1  0  0  0  0
 43 45  1  0  0  0  0
 45 46  2  0  0  0  0
 45 47  1  0  0  0  0
M  CHG  1  29   1
M  END
>  <MODEL>
       3

$$$$
best_conformers_10.pdb
 OpenBabel01292518153D

 57 62  0  0  1  0  0  0  0  0999 V2000
   -6.9740   -5.1780  -22.8860 C   0  0  0  0  0  0  0  0  0  0  0  0
   -7.4920   -3.9730  -22.1070 C   0  0  1  0  0  0  0  0  0  0  0  0
   -6.4780   -3.4530  -21.0710 C   0  0  0  0  0  0  0  0  0  0  0  0
   -6.7840   -2.0390  -20.9660 N   0  0  0  0  0  0  0  0  0  0  0  0
   -6.1750   -1.1870  -20.0100 C   0  0  0  0  0  0  0  0  0  0  0  0
   -6.5300   -1.2920  -18.6900 C   0  0  0  0  0  0  0  0  0  0  0  0
   -6.0200   -0.5320  -17.6910 N   0  0  0  0  0  0  0  0  0  0  0  0
   -5.1060    0.3530  -18.0160 C   0  0  0  0  0  0  0  0  0  0  0  0
   -4.6150    0.5410  -19.3400 C   0  0  0  0  0  0  0  0  0  0  0  0
   -3.6100    1.5040  -19.6360 C   0  0  0  0  0  0  0  0  0  0  0  0
   -3.1410    1.6480  -20.9140 C   0  0  0  0  0  0  0  0  0  0  0  0
   -3.6470    0.8320  -21.9490 C   0  0  0  0  0  0  0  0  0  0  0  0
   -4.6170   -0.1020  -21.6880 C   0  0  0  0  0  0  0  0  0  0  0  0
   -5.1480   -0.2560  -20.3750 C   0  0  0  0  0  0  0  0  0  0  0  0
   -5.0010   -0.7180  -22.4930 H   0  0  0  0  0  0  0  0  0  0  0  0
   -3.2780    0.9560  -22.9640 H   0  0  0  0  0  0  0  0  0  0  0  0
   -2.3840    2.3950  -21.1400 H   0  0  0  0  0  0  0  0  0  0  0  0
   -3.2340    2.1240  -18.8280 H   0  0  0  0  0  0  0  0  0  0  0  0
   -4.7090    0.9690  -17.2100 H   0  0  0  0  0  0  0  0  0  0  0  0
   -7.2800   -2.0200  -18.3850 H   0  0  0  0  0  0  0  0  0  0  0  0
   -7.5450   -1.5500  -22.0030 C   0  0  0  0  0  0  0  0  0  0  0  0
   -7.8580   -0.3830  -22.1260 O   0  0  0  0  0  0  0  0  0  0  0  0
   -7.9010   -2.7120  -22.9530 C   0  0  1  0  0  0  0  0  0  0  0  0
   -7.1140   -2.4790  -24.2580 C   0  0  0  0  0  0  0  0  0  0  0  0
   -7.5700   -3.2820  -25.3820 N   0  0  0  0  0  0  0  0  0  0  0  0
   -6.5870   -3.6660  -26.3960 C   0  0  0  0  0  0  0  0  0  0  0  0
   -6.1150   -5.0930  -26.2960 C   0  0  0  0  0  0  0  0  0  0  0  0
   -6.7820   -6.2250  -26.6260 C   0  0  0  0  0  0  0  0  0  0  0  0
   -5.9720   -7.3020  -26.3130 N   0  3  0  0  0  0  0  0  0  0  0  0
   -4.8290   -6.8300  -25.8150 C   0  0  0  0  0  0  0  0  0  0  0  0
   -4.8710   -5.4880  -25.8030 N   0  0  0  0  0  0  0  0  0  0  0  0
   -4.1570   -4.8690  -25.4140 H   0  0  0  0  0  0  0  0  0  0  0  0
   -4.0210   -7.4280  -25.4320 H   0  0  0  0  0  0  0  0  0  0  0  0
   -6.2420   -8.2770  -26.4300 H   0  0  0  0  0  0  0  0  0  0  0  0
   -7.7640   -6.3540  -27.0600 H   0  0  0  0  0  0  0  0  0  0  0  0
   -7.0620   -3.5100  -27.3700 H   0  0  0  0  0  0  0  0  0  0  0  0
   -5.7410   -2.9730  -26.3100 H   0  0  0  0  0  0  0  0  0  0  0  0
   -8.8890   -3.5630  -25.6230 C   0  0  0  0  0  0  0  0  0  0  0  0
   -9.2450   -4.1270  -26.6510 O   0  0  0  0  0  0  0  0  0  0  0  0
   -9.8440   -3.1640  -24.5270 C   0  0  0  0  0  0  0  0  0  0  0  0
  -11.2160   -3.3170  -24.7370 C   0  0  0  0  0  0  0  0  0  0  0  0
  -12.1030   -3.0320  -23.7140 C   0  0  0  0  0  0  0  0  0  0  0  0
  -11.6200   -2.5530  -22.5120 C   0  0  0  0  0  0  0  0  0  0  0  0
  -12.5310   -2.2430  -21.5830 F   0  0  0  0  0  0  0  0  0  0  0  0
  -10.2760   -2.4110  -22.2540 C   0  0  0  0  0  0  0  0  0  0  0  0
   -9.3740   -2.7270  -23.2790 C   0  0  0  0  0  0  0  0  0  0  0  0
   -9.9460   -2.0870  -21.2700 H   0  0  0  0  0  0  0  0  0  0  0  0
  -13.1780   -3.1580  -23.7320 H   0  0  0  0  0  0  0  0  0  0  0  0
  -11.5430   -3.6630  -25.7120 H   0  0  0  0  0  0  0  0  0  0  0  0
   -6.0610   -2.7330  -24.0900 H   0  0  0  0  0  0  0  0  0  0  0  0
   -7.2020   -1.4040  -24.4800 H   0  0  0  0  0  0  0  0  0  0  0  0
   -5.4420   -3.6210  -21.4090 H   0  0  0  0  0  0  0  0  0  0  0  0
   -6.5620   -3.9260  -20.0890 H   0  0  0  0  0  0  0  0  0  0  0  0
   -8.4170   -4.2580  -21.5860 H   0  0  0  0  0  0  0  0  0  0  0  0
   -6.0200   -4.9330  -23.3590 H   0  0  0  0  0  0  0  0  0  0  0  0
   -6.8060   -6.0340  -22.2220 H   0  0  0  0  0  0  0  0  0  0  0  0
   -7.6760   -5.4790  -23.6720 H   0  0  0  0  0  0  0  0  0  0  0  0
  1  2  1  0  0  0  0
  1 55  1  0  0  0  0
  1 56  1  0  0  0  0
  1 57  1  0  0  0  0
  2  3  1  0  0  0  0
  2 23  1  0  0  0  0
  2 54  1  1  0  0  0
  3  4  1  0  0  0  0
  3 52  1  0  0  0  0
  3 53  1  0  0  0  0
  4  5  1  0  0  0  0
  4 21  1  0  0  0  0
  5  6  2  0  0  0  0
  5 14  1  0  0  0  0
  6  7  1  0  0  0  0
  6 20  1  0  0  0  0
  7  8  2  0  0  0  0
  8  9  1  0  0  0  0
  8 19  1  0  0  0  0
  9 10  2  0  0  0  0
  9 14  1  0  0  0  0
 10 11  1  0  0  0  0
 10 18  1  0  0  0  0
 11 12  2  0  0  0  0
 11 17  1  0  0  0  0
 12 13  1  0  0  0  0
 12 16  1  0  0  0  0
 13 14  2  0  0  0  0
 13 15  1  0  0  0  0
 21 22  2  0  0  0  0
 23 21  1  1  0  0  0
 23 24  1  0  0  0  0
 23 46  1  0  0  0  0
 24 25  1  0  0  0  0
 24 50  1  0  0  0  0
 24 51  1  0  0  0  0
 25 26  1  0  0  0  0
 25 38  1  0  0  0  0
 26 27  1  0  0  0  0
 26 36  1  0  0  0  0
 26 37  1  0  0  0  0
 27 28  2  0  0  0  0
 27 31  1  0  0  0  0
 28 29  1  0  0  0  0
 28 35  1  0  0  0  0
 29 30  2  0  0  0  0
 29 34  1  0  0  0  0
 30 31  1  0  0  0  0
 30 33  1  0  0  0  0
 31 32  1  0  0  0  0
 38 39  2  0  0  0  0
 38 40  1  0  0  0  0
 40 41  2  0  0  0  0
 40 46  1  0  0  0  0
 41 42  1  0  0  0  0
 41 49  1  0  0  0  0
 42 43  2  0  0  0  0
 42 48  1  0  0  0  0
 43 44  1  0  0  0  0
 43 45  1  0  0  0  0
 45 46  2  0  0  0  0
 45 47  1  0  0  0  0
M  CHG  1  29   1
M  END
>  <MODEL>
       4

$$$$
