best_conformers_35.pdb
 OpenBabel01292518153D

 40 42  0  0  0  0  0  0  0  0999 V2000
   -4.8070   -3.5220  -20.7680 O   0  0  0  0  0  0  0  0  0  0  0  0
   -5.8130   -3.3060  -21.4220 C   0  0  0  0  0  0  0  0  0  0  0  0
   -6.7520   -2.1360  -21.0320 C   0  0  0  0  0  0  0  0  0  0  0  0
   -6.1390   -1.2120  -20.0040 C   0  0  0  0  0  0  0  0  0  0  0  0
   -6.5060   -1.2820  -18.6830 C   0  0  0  0  0  0  0  0  0  0  0  0
   -6.0140   -0.5130  -17.6730 N   0  0  0  0  0  0  0  0  0  0  0  0
   -5.0960    0.3700  -17.9990 C   0  0  0  0  0  0  0  0  0  0  0  0
   -4.6050    0.5510  -19.3230 C   0  0  0  0  0  0  0  0  0  0  0  0
   -3.6070    1.5160  -19.6260 C   0  0  0  0  0  0  0  0  0  0  0  0
   -3.1500    1.6660  -20.9110 C   0  0  0  0  0  0  0  0  0  0  0  0
   -3.6740    0.8580  -21.9430 C   0  0  0  0  0  0  0  0  0  0  0  0
   -4.6420   -0.0810  -21.6730 C   0  0  0  0  0  0  0  0  0  0  0  0
   -5.1360   -0.2600  -20.3540 C   0  0  0  0  0  0  0  0  0  0  0  0
   -5.0280   -0.6960  -22.4780 H   0  0  0  0  0  0  0  0  0  0  0  0
   -3.3100    0.9840  -22.9580 H   0  0  0  0  0  0  0  0  0  0  0  0
   -2.3890    2.4070  -21.1450 H   0  0  0  0  0  0  0  0  0  0  0  0
   -3.2100    2.1360  -18.8260 H   0  0  0  0  0  0  0  0  0  0  0  0
   -4.6870    0.9920  -17.2000 H   0  0  0  0  0  0  0  0  0  0  0  0
   -7.2610   -1.9990  -18.3680 H   0  0  0  0  0  0  0  0  0  0  0  0
   -7.0700   -1.5510  -21.9070 H   0  0  0  0  0  0  0  0  0  0  0  0
   -7.6710   -2.5660  -20.6060 H   0  0  0  0  0  0  0  0  0  0  0  0
   -6.1740   -4.1180  -22.4780 N   0  0  0  0  0  0  0  0  0  0  0  0
   -7.1590   -3.7400  -23.4890 C   0  0  0  0  0  0  0  0  0  0  0  0
   -7.1090   -4.6500  -24.7170 C   0  0  0  0  0  0  0  0  0  0  0  0
   -7.1830   -6.1480  -24.4000 C   0  0  0  0  0  0  0  0  0  0  0  0
   -8.6070   -6.6640  -24.4710 C   0  0  0  0  0  0  0  0  0  0  0  0
   -8.7060   -7.9680  -24.1450 F   0  0  0  0  0  0  0  0  0  0  0  0
   -9.3800   -5.9670  -23.6190 F   0  0  0  0  0  0  0  0  0  0  0  0
   -9.1680   -6.5230  -25.6890 F   0  0  0  0  0  0  0  0  0  0  0  0
   -6.5500   -6.4790  -23.0390 C   0  0  0  0  0  0  0  0  0  0  0  0
   -5.5320   -5.4260  -22.6190 C   0  0  0  0  0  0  0  0  0  0  0  0
   -4.7080   -5.3810  -23.3430 H   0  0  0  0  0  0  0  0  0  0  0  0
   -5.0840   -5.6990  -21.6660 H   0  0  0  0  0  0  0  0  0  0  0  0
   -7.3140   -6.5580  -22.2590 H   0  0  0  0  0  0  0  0  0  0  0  0
   -6.0730   -7.4600  -23.0990 H   0  0  0  0  0  0  0  0  0  0  0  0
   -6.6700   -6.6980  -25.1910 H   0  0  0  0  0  0  0  0  0  0  0  0
   -7.9040   -4.3680  -25.4140 H   0  0  0  0  0  0  0  0  0  0  0  0
   -6.1790   -4.4640  -25.2610 H   0  0  0  0  0  0  0  0  0  0  0  0
   -6.9580   -2.7210  -23.8360 H   0  0  0  0  0  0  0  0  0  0  0  0
   -8.1710   -3.7420  -23.0710 H   0  0  0  0  0  0  0  0  0  0  0  0
  1  2  2  0  0  0  0
  2  3  1  0  0  0  0
  2 22  1  0  0  0  0
  3  4  1  0  0  0  0
  3 20  1  0  0  0  0
  3 21  1  0  0  0  0
  4  5  2  0  0  0  0
  4 13  1  0  0  0  0
  5  6  1  0  0  0  0
  5 19  1  0  0  0  0
  6  7  2  0  0  0  0
  7  8  1  0  0  0  0
  7 18  1  0  0  0  0
  8  9  2  0  0  0  0
  8 13  1  0  0  0  0
  9 10  1  0  0  0  0
  9 17  1  0  0  0  0
 10 11  2  0  0  0  0
 10 16  1  0  0  0  0
 11 12  1  0  0  0  0
 11 15  1  0  0  0  0
 12 13  2  0  0  0  0
 12 14  1  0  0  0  0
 22 23  1  0  0  0  0
 22 31  1  0  0  0  0
 23 24  1  0  0  0  0
 23 39  1  0  0  0  0
 23 40  1  0  0  0  0
 24 25  1  0  0  0  0
 24 37  1  0  0  0  0
 24 38  1  0  0  0  0
 25 26  1  0  0  0  0
 25 30  1  0  0  0  0
 25 36  1  0  0  0  0
 26 27  1  0  0  0  0
 26 28  1  0  0  0  0
 26 29  1  0  0  0  0
 30 31  1  0  0  0  0
 30 34  1  0  0  0  0
 30 35  1  0  0  0  0
 31 32  1  0  0  0  0
 31 33  1  0  0  0  0
M  END
>  <MODEL>
       1

$$$$
best_conformers_35.pdb
 OpenBabel01292518153D

 40 42  0  0  0  0  0  0  0  0999 V2000
   -4.9360   -3.6430  -20.6430 O   0  0  0  0  0  0  0  0  0  0  0  0
   -5.7980   -3.2850  -21.4310 C   0  0  0  0  0  0  0  0  0  0  0  0
   -6.7500   -2.1300  -21.0310 C   0  0  0  0  0  0  0  0  0  0  0  0
   -6.1410   -1.2090  -19.9980 C   0  0  0  0  0  0  0  0  0  0  0  0
   -6.5060   -1.2800  -18.6780 C   0  0  0  0  0  0  0  0  0  0  0  0
   -6.0130   -0.5100  -17.6680 N   0  0  0  0  0  0  0  0  0  0  0  0
   -5.0950    0.3710  -17.9980 C   0  0  0  0  0  0  0  0  0  0  0  0
   -4.6040    0.5550  -19.3220 C   0  0  0  0  0  0  0  0  0  0  0  0
   -3.6040    1.5190  -19.6270 C   0  0  0  0  0  0  0  0  0  0  0  0
   -3.1520    1.6680  -20.9120 C   0  0  0  0  0  0  0  0  0  0  0  0
   -3.6770    0.8610  -21.9430 C   0  0  0  0  0  0  0  0  0  0  0  0
   -4.6450   -0.0760  -21.6750 C   0  0  0  0  0  0  0  0  0  0  0  0
   -5.1380   -0.2560  -20.3520 C   0  0  0  0  0  0  0  0  0  0  0  0
   -5.0320   -0.6880  -22.4830 H   0  0  0  0  0  0  0  0  0  0  0  0
   -3.3130    0.9880  -22.9590 H   0  0  0  0  0  0  0  0  0  0  0  0
   -2.3900    2.4070  -21.1470 H   0  0  0  0  0  0  0  0  0  0  0  0
   -3.2060    2.1390  -18.8270 H   0  0  0  0  0  0  0  0  0  0  0  0
   -4.6840    0.9940  -17.2020 H   0  0  0  0  0  0  0  0  0  0  0  0
   -7.2630   -2.0010  -18.3700 H   0  0  0  0  0  0  0  0  0  0  0  0
   -7.6510   -2.5880  -20.5960 H   0  0  0  0  0  0  0  0  0  0  0  0
   -7.0940   -1.5410  -21.8890 H   0  0  0  0  0  0  0  0  0  0  0  0
   -5.9810   -3.9240  -22.6420 N   0  0  0  0  0  0  0  0  0  0  0  0
   -6.7200   -3.3390  -23.7630 C   0  0  0  0  0  0  0  0  0  0  0  0
   -6.4600   -4.0690  -25.0830 C   0  0  0  0  0  0  0  0  0  0  0  0
   -6.6740   -5.5880  -25.0090 C   0  0  0  0  0  0  0  0  0  0  0  0
   -8.0710   -5.9930  -25.4440 C   0  0  0  0  0  0  0  0  0  0  0  0
   -9.0230   -5.4150  -24.6860 F   0  0  0  0  0  0  0  0  0  0  0  0
   -8.2700   -7.3210  -25.3600 F   0  0  0  0  0  0  0  0  0  0  0  0
   -8.3390   -5.6410  -26.7150 F   0  0  0  0  0  0  0  0  0  0  0  0
   -6.3480   -6.1540  -23.6160 C   0  0  0  0  0  0  0  0  0  0  0  0
   -5.3890   -5.2510  -22.8460 C   0  0  0  0  0  0  0  0  0  0  0  0
   -5.1690   -5.6960  -21.8740 H   0  0  0  0  0  0  0  0  0  0  0  0
   -4.4320   -5.1760  -23.3770 H   0  0  0  0  0  0  0  0  0  0  0  0
   -5.9130   -7.1540  -23.7220 H   0  0  0  0  0  0  0  0  0  0  0  0
   -7.2580   -6.2760  -23.0210 H   0  0  0  0  0  0  0  0  0  0  0  0
   -6.0170   -6.0600  -25.7450 H   0  0  0  0  0  0  0  0  0  0  0  0
   -5.4270   -3.8790  -25.3930 H   0  0  0  0  0  0  0  0  0  0  0  0
   -7.0780   -3.6320  -25.8770 H   0  0  0  0  0  0  0  0  0  0  0  0
   -7.7960   -3.3320  -23.5560 H   0  0  0  0  0  0  0  0  0  0  0  0
   -6.4100   -2.2950  -23.9070 H   0  0  0  0  0  0  0  0  0  0  0  0
  1  2  2  0  0  0  0
  2  3  1  0  0  0  0
  2 22  1  0  0  0  0
  3  4  1  0  0  0  0
  3 20  1  0  0  0  0
  3 21  1  0  0  0  0
  4  5  2  0  0  0  0
  4 13  1  0  0  0  0
  5  6  1  0  0  0  0
  5 19  1  0  0  0  0
  6  7  2  0  0  0  0
  7  8  1  0  0  0  0
  7 18  1  0  0  0  0
  8  9  2  0  0  0  0
  8 13  1  0  0  0  0
  9 10  1  0  0  0  0
  9 17  1  0  0  0  0
 10 11  2  0  0  0  0
 10 16  1  0  0  0  0
 11 12  1  0  0  0  0
 11 15  1  0  0  0  0
 12 13  2  0  0  0  0
 12 14  1  0  0  0  0
 22 23  1  0  0  0  0
 22 31  1  0  0  0  0
 23 24  1  0  0  0  0
 23 39  1  0  0  0  0
 23 40  1  0  0  0  0
 24 25  1  0  0  0  0
 24 37  1  0  0  0  0
 24 38  1  0  0  0  0
 25 26  1  0  0  0  0
 25 30  1  0  0  0  0
 25 36  1  0  0  0  0
 26 27  1  0  0  0  0
 26 28  1  0  0  0  0
 26 29  1  0  0  0  0
 30 31  1  0  0  0  0
 30 34  1  0  0  0  0
 30 35  1  0  0  0  0
 31 32  1  0  0  0  0
 31 33  1  0  0  0  0
M  END
>  <MODEL>
       2

$$$$
best_conformers_35.pdb
 OpenBabel01292518153D

 40 42  0  0  0  0  0  0  0  0999 V2000
   -4.9360   -3.6430  -20.6440 O   0  0  0  0  0  0  0  0  0  0  0  0
   -5.7990   -3.2850  -21.4320 C   0  0  0  0  0  0  0  0  0  0  0  0
   -6.7500   -2.1300  -21.0310 C   0  0  0  0  0  0  0  0  0  0  0  0
   -6.1410   -1.2090  -19.9980 C   0  0  0  0  0  0  0  0  0  0  0  0
   -6.5060   -1.2800  -18.6780 C   0  0  0  0  0  0  0  0  0  0  0  0
   -6.0130   -0.5100  -17.6680 N   0  0  0  0  0  0  0  0  0  0  0  0
   -5.0950    0.3710  -17.9980 C   0  0  0  0  0  0  0  0  0  0  0  0
   -4.6040    0.5550  -19.3220 C   0  0  0  0  0  0  0  0  0  0  0  0
   -3.6050    1.5190  -19.6270 C   0  0  0  0  0  0  0  0  0  0  0  0
   -3.1520    1.6680  -20.9120 C   0  0  0  0  0  0  0  0  0  0  0  0
   -3.6780    0.8610  -21.9430 C   0  0  0  0  0  0  0  0  0  0  0  0
   -4.6450   -0.0760  -21.6750 C   0  0  0  0  0  0  0  0  0  0  0  0
   -5.1380   -0.2560  -20.3520 C   0  0  0  0  0  0  0  0  0  0  0  0
   -5.0320   -0.6880  -22.4840 H   0  0  0  0  0  0  0  0  0  0  0  0
   -3.3130    0.9880  -22.9590 H   0  0  0  0  0  0  0  0  0  0  0  0
   -2.3900    2.4070  -21.1470 H   0  0  0  0  0  0  0  0  0  0  0  0
   -3.2060    2.1390  -18.8270 H   0  0  0  0  0  0  0  0  0  0  0  0
   -4.6840    0.9940  -17.2020 H   0  0  0  0  0  0  0  0  0  0  0  0
   -7.2630   -2.0010  -18.3700 H   0  0  0  0  0  0  0  0  0  0  0  0
   -7.6510   -2.5880  -20.5960 H   0  0  0  0  0  0  0  0  0  0  0  0
   -7.0950   -1.5410  -21.8890 H   0  0  0  0  0  0  0  0  0  0  0  0
   -5.9810   -3.9230  -22.6430 N   0  0  0  0  0  0  0  0  0  0  0  0
   -6.7200   -3.3370  -23.7640 C   0  0  0  0  0  0  0  0  0  0  0  0
   -6.4590   -4.0660  -25.0850 C   0  0  0  0  0  0  0  0  0  0  0  0
   -6.6730   -5.5850  -25.0110 C   0  0  0  0  0  0  0  0  0  0  0  0
   -8.0700   -5.9900  -25.4470 C   0  0  0  0  0  0  0  0  0  0  0  0
   -8.3380   -5.6370  -26.7190 F   0  0  0  0  0  0  0  0  0  0  0  0
   -9.0230   -5.4120  -24.6900 F   0  0  0  0  0  0  0  0  0  0  0  0
   -8.2690   -7.3180  -25.3640 F   0  0  0  0  0  0  0  0  0  0  0  0
   -6.3480   -6.1520  -23.6180 C   0  0  0  0  0  0  0  0  0  0  0  0
   -5.3890   -5.2500  -22.8470 C   0  0  0  0  0  0  0  0  0  0  0  0
   -4.4320   -5.1750  -23.3780 H   0  0  0  0  0  0  0  0  0  0  0  0
   -5.1690   -5.6950  -21.8760 H   0  0  0  0  0  0  0  0  0  0  0  0
   -5.9130   -7.1520  -23.7250 H   0  0  0  0  0  0  0  0  0  0  0  0
   -7.2590   -6.2740  -23.0240 H   0  0  0  0  0  0  0  0  0  0  0  0
   -6.0150   -6.0560  -25.7480 H   0  0  0  0  0  0  0  0  0  0  0  0
   -5.4260   -3.8760  -25.3940 H   0  0  0  0  0  0  0  0  0  0  0  0
   -7.0770   -3.6290  -25.8790 H   0  0  0  0  0  0  0  0  0  0  0  0
   -7.7950   -3.3300  -23.5580 H   0  0  0  0  0  0  0  0  0  0  0  0
   -6.4090   -2.2930  -23.9070 H   0  0  0  0  0  0  0  0  0  0  0  0
  1  2  2  0  0  0  0
  2  3  1  0  0  0  0
  2 22  1  0  0  0  0
  3  4  1  0  0  0  0
  3 20  1  0  0  0  0
  3 21  1  0  0  0  0
  4  5  2  0  0  0  0
  4 13  1  0  0  0  0
  5  6  1  0  0  0  0
  5 19  1  0  0  0  0
  6  7  2  0  0  0  0
  7  8  1  0  0  0  0
  7 18  1  0  0  0  0
  8  9  2  0  0  0  0
  8 13  1  0  0  0  0
  9 10  1  0  0  0  0
  9 17  1  0  0  0  0
 10 11  2  0  0  0  0
 10 16  1  0  0  0  0
 11 12  1  0  0  0  0
 11 15  1  0  0  0  0
 12 13  2  0  0  0  0
 12 14  1  0  0  0  0
 22 23  1  0  0  0  0
 22 31  1  0  0  0  0
 23 24  1  0  0  0  0
 23 39  1  0  0  0  0
 23 40  1  0  0  0  0
 24 25  1  0  0  0  0
 24 37  1  0  0  0  0
 24 38  1  0  0  0  0
 25 26  1  0  0  0  0
 25 30  1  0  0  0  0
 25 36  1  0  0  0  0
 26 27  1  0  0  0  0
 26 28  1  0  0  0  0
 26 29  1  0  0  0  0
 30 31  1  0  0  0  0
 30 34  1  0  0  0  0
 30 35  1  0  0  0  0
 31 32  1  0  0  0  0
 31 33  1  0  0  0  0
M  END
>  <MODEL>
       3

$$$$
best_conformers_35.pdb
 OpenBabel01292518153D

 40 42  0  0  0  0  0  0  0  0999 V2000
   -8.7930   -0.7840  -21.1910 O   0  0  0  0  0  0  0  0  0  0  0  0
   -7.8590   -1.2750  -21.7910 C   0  0  0  0  0  0  0  0  0  0  0  0
   -6.8000   -2.0930  -21.0320 C   0  0  0  0  0  0  0  0  0  0  0  0
   -6.1320   -1.2150  -19.9920 C   0  0  0  0  0  0  0  0  0  0  0  0
   -6.5120   -1.2740  -18.6760 C   0  0  0  0  0  0  0  0  0  0  0  0
   -6.0150   -0.5070  -17.6690 N   0  0  0  0  0  0  0  0  0  0  0  0
   -5.0930    0.3700  -17.9980 C   0  0  0  0  0  0  0  0  0  0  0  0
   -4.6050    0.5560  -19.3230 C   0  0  0  0  0  0  0  0  0  0  0  0
   -3.6150    1.5260  -19.6290 C   0  0  0  0  0  0  0  0  0  0  0  0
   -3.1740    1.6900  -20.9170 C   0  0  0  0  0  0  0  0  0  0  0  0
   -3.7060    0.8890  -21.9510 C   0  0  0  0  0  0  0  0  0  0  0  0
   -4.6630   -0.0600  -21.6780 C   0  0  0  0  0  0  0  0  0  0  0  0
   -5.1420   -0.2520  -20.3540 C   0  0  0  0  0  0  0  0  0  0  0  0
   -5.0520   -0.6660  -22.4880 H   0  0  0  0  0  0  0  0  0  0  0  0
   -3.3510    1.0270  -22.9700 H   0  0  0  0  0  0  0  0  0  0  0  0
   -2.4210    2.4380  -21.1510 H   0  0  0  0  0  0  0  0  0  0  0  0
   -3.2160    2.1450  -18.8280 H   0  0  0  0  0  0  0  0  0  0  0  0
   -4.6860    0.9930  -17.2010 H   0  0  0  0  0  0  0  0  0  0  0  0
   -7.2730   -1.9900  -18.3680 H   0  0  0  0  0  0  0  0  0  0  0  0
   -7.3130   -2.9160  -20.5210 H   0  0  0  0  0  0  0  0  0  0  0  0
   -6.0510   -2.5260  -21.7060 H   0  0  0  0  0  0  0  0  0  0  0  0
   -7.6280   -1.0450  -23.1520 N   0  0  0  0  0  0  0  0  0  0  0  0
   -8.0310    0.2400  -23.7230 C   0  0  0  0  0  0  0  0  0  0  0  0
   -7.0440    0.6720  -24.8050 C   0  0  0  0  0  0  0  0  0  0  0  0
   -6.8810   -0.4250  -25.8550 C   0  0  0  0  0  0  0  0  0  0  0  0
   -5.8880   -0.0170  -26.9320 C   0  0  0  0  0  0  0  0  0  0  0  0
   -5.7580   -0.9540  -27.8940 F   0  0  0  0  0  0  0  0  0  0  0  0
   -4.6540    0.1850  -26.4230 F   0  0  0  0  0  0  0  0  0  0  0  0
   -6.2400    1.1280  -27.5510 F   0  0  0  0  0  0  0  0  0  0  0  0
   -6.4780   -1.7480  -25.2080 C   0  0  0  0  0  0  0  0  0  0  0  0
   -7.4710   -2.1300  -24.1210 C   0  0  0  0  0  0  0  0  0  0  0  0
   -7.1380   -3.0290  -23.6010 H   0  0  0  0  0  0  0  0  0  0  0  0
   -8.4340   -2.3880  -24.5930 H   0  0  0  0  0  0  0  0  0  0  0  0
   -5.4820   -1.6520  -24.7650 H   0  0  0  0  0  0  0  0  0  0  0  0
   -6.4190   -2.5410  -25.9610 H   0  0  0  0  0  0  0  0  0  0  0  0
   -7.8310   -0.5570  -26.3840 H   0  0  0  0  0  0  0  0  0  0  0  0
   -7.3790    1.6040  -25.2740 H   0  0  0  0  0  0  0  0  0  0  0  0
   -6.0720    0.8880  -24.3430 H   0  0  0  0  0  0  0  0  0  0  0  0
   -9.0480    0.2100  -24.1420 H   0  0  0  0  0  0  0  0  0  0  0  0
   -8.0460    0.9810  -22.9220 H   0  0  0  0  0  0  0  0  0  0  0  0
  1  2  2  0  0  0  0
  2  3  1  0  0  0  0
  2 22  1  0  0  0  0
  3  4  1  0  0  0  0
  3 20  1  0  0  0  0
  3 21  1  0  0  0  0
  4  5  2  0  0  0  0
  4 13  1  0  0  0  0
  5  6  1  0  0  0  0
  5 19  1  0  0  0  0
  6  7  2  0  0  0  0
  7  8  1  0  0  0  0
  7 18  1  0  0  0  0
  8  9  2  0  0  0  0
  8 13  1  0  0  0  0
  9 10  1  0  0  0  0
  9 17  1  0  0  0  0
 10 11  2  0  0  0  0
 10 16  1  0  0  0  0
 11 12  1  0  0  0  0
 11 15  1  0  0  0  0
 12 13  2  0  0  0  0
 12 14  1  0  0  0  0
 22 23  1  0  0  0  0
 22 31  1  0  0  0  0
 23 24  1  0  0  0  0
 23 39  1  0  0  0  0
 23 40  1  0  0  0  0
 24 25  1  0  0  0  0
 24 37  1  0  0  0  0
 24 38  1  0  0  0  0
 25 26  1  0  0  0  0
 25 30  1  0  0  0  0
 25 36  1  0  0  0  0
 26 27  1  0  0  0  0
 26 28  1  0  0  0  0
 26 29  1  0  0  0  0
 30 31  1  0  0  0  0
 30 34  1  0  0  0  0
 30 35  1  0  0  0  0
 31 32  1  0  0  0  0
 31 33  1  0  0  0  0
M  END
>  <MODEL>
       4

$$$$
best_conformers_35.pdb
 OpenBabel01292518153D

 40 42  0  0  0  0  0  0  0  0999 V2000
   -8.7970   -0.7890  -21.1870 O   0  0  0  0  0  0  0  0  0  0  0  0
   -7.8620   -1.2740  -21.7880 C   0  0  0  0  0  0  0  0  0  0  0  0
   -6.8010   -2.0930  -21.0320 C   0  0  0  0  0  0  0  0  0  0  0  0
   -6.1320   -1.2150  -19.9930 C   0  0  0  0  0  0  0  0  0  0  0  0
   -6.5120   -1.2740  -18.6760 C   0  0  0  0  0  0  0  0  0  0  0  0
   -6.0150   -0.5070  -17.6690 N   0  0  0  0  0  0  0  0  0  0  0  0
   -5.0930    0.3700  -17.9990 C   0  0  0  0  0  0  0  0  0  0  0  0
   -4.6050    0.5560  -19.3230 C   0  0  0  0  0  0  0  0  0  0  0  0
   -3.6150    1.5260  -19.6290 C   0  0  0  0  0  0  0  0  0  0  0  0
   -3.1740    1.6900  -20.9170 C   0  0  0  0  0  0  0  0  0  0  0  0
   -3.7060    0.8890  -21.9510 C   0  0  0  0  0  0  0  0  0  0  0  0
   -4.6630   -0.0600  -21.6780 C   0  0  0  0  0  0  0  0  0  0  0  0
   -5.1420   -0.2520  -20.3540 C   0  0  0  0  0  0  0  0  0  0  0  0
   -5.0520   -0.6660  -22.4880 H   0  0  0  0  0  0  0  0  0  0  0  0
   -3.3510    1.0280  -22.9700 H   0  0  0  0  0  0  0  0  0  0  0  0
   -2.4210    2.4390  -21.1510 H   0  0  0  0  0  0  0  0  0  0  0  0
   -3.2160    2.1450  -18.8280 H   0  0  0  0  0  0  0  0  0  0  0  0
   -4.6860    0.9930  -17.2010 H   0  0  0  0  0  0  0  0  0  0  0  0
   -7.2730   -1.9900  -18.3680 H   0  0  0  0  0  0  0  0  0  0  0  0
   -7.3130   -2.9160  -20.5210 H   0  0  0  0  0  0  0  0  0  0  0  0
   -6.0520   -2.5240  -21.7080 H   0  0  0  0  0  0  0  0  0  0  0  0
   -7.6290   -1.0370  -23.1480 N   0  0  0  0  0  0  0  0  0  0  0  0
   -7.4720   -2.1160  -24.1220 C   0  0  0  0  0  0  0  0  0  0  0  0
   -6.4820   -1.7270  -25.2090 C   0  0  0  0  0  0  0  0  0  0  0  0
   -6.8870   -0.4010  -25.8490 C   0  0  0  0  0  0  0  0  0  0  0  0
   -5.8970    0.0130  -26.9250 C   0  0  0  0  0  0  0  0  0  0  0  0
   -4.6620    0.2140  -26.4180 F   0  0  0  0  0  0  0  0  0  0  0  0
   -5.7670   -0.9190  -27.8920 F   0  0  0  0  0  0  0  0  0  0  0  0
   -6.2510    1.1610  -27.5380 F   0  0  0  0  0  0  0  0  0  0  0  0
   -7.0500    0.6900  -24.7920 C   0  0  0  0  0  0  0  0  0  0  0  0
   -8.0350    0.2500  -23.7120 C   0  0  0  0  0  0  0  0  0  0  0  0
   -8.0500    0.9880  -22.9070 H   0  0  0  0  0  0  0  0  0  0  0  0
   -9.0530    0.2210  -24.1300 H   0  0  0  0  0  0  0  0  0  0  0  0
   -7.3870    1.6230  -25.2560 H   0  0  0  0  0  0  0  0  0  0  0  0
   -6.0780    0.9040  -24.3320 H   0  0  0  0  0  0  0  0  0  0  0  0
   -7.8380   -0.5320  -26.3770 H   0  0  0  0  0  0  0  0  0  0  0  0
   -5.4840   -1.6330  -24.7670 H   0  0  0  0  0  0  0  0  0  0  0  0
   -6.4230   -2.5170  -25.9660 H   0  0  0  0  0  0  0  0  0  0  0  0
   -7.1370   -3.0170  -23.6070 H   0  0  0  0  0  0  0  0  0  0  0  0
   -8.4360   -2.3740  -24.5940 H   0  0  0  0  0  0  0  0  0  0  0  0
  1  2  2  0  0  0  0
  2  3  1  0  0  0  0
  2 22  1  0  0  0  0
  3  4  1  0  0  0  0
  3 20  1  0  0  0  0
  3 21  1  0  0  0  0
  4  5  2  0  0  0  0
  4 13  1  0  0  0  0
  5  6  1  0  0  0  0
  5 19  1  0  0  0  0
  6  7  2  0  0  0  0
  7  8  1  0  0  0  0
  7 18  1  0  0  0  0
  8  9  2  0  0  0  0
  8 13  1  0  0  0  0
  9 10  1  0  0  0  0
  9 17  1  0  0  0  0
 10 11  2  0  0  0  0
 10 16  1  0  0  0  0
 11 12  1  0  0  0  0
 11 15  1  0  0  0  0
 12 13  2  0  0  0  0
 12 14  1  0  0  0  0
 22 23  1  0  0  0  0
 22 31  1  0  0  0  0
 23 24  1  0  0  0  0
 23 39  1  0  0  0  0
 23 40  1  0  0  0  0
 24 25  1  0  0  0  0
 24 37  1  0  0  0  0
 24 38  1  0  0  0  0
 25 26  1  0  0  0  0
 25 30  1  0  0  0  0
 25 36  1  0  0  0  0
 26 27  1  0  0  0  0
 26 28  1  0  0  0  0
 26 29  1  0  0  0  0
 30 31  1  0  0  0  0
 30 34  1  0  0  0  0
 30 35  1  0  0  0  0
 31 32  1  0  0  0  0
 31 33  1  0  0  0  0
M  END
>  <MODEL>
       5

$$$$
best_conformers_35.pdb
 OpenBabel01292518153D

 40 42  0  0  0  0  0  0  0  0999 V2000
   -8.7970   -0.7890  -21.1870 O   0  0  0  0  0  0  0  0  0  0  0  0
   -7.8620   -1.2740  -21.7880 C   0  0  0  0  0  0  0  0  0  0  0  0
   -6.8010   -2.0930  -21.0320 C   0  0  0  0  0  0  0  0  0  0  0  0
   -6.1320   -1.2150  -19.9930 C   0  0  0  0  0  0  0  0  0  0  0  0
   -6.5120   -1.2740  -18.6760 C   0  0  0  0  0  0  0  0  0  0  0  0
   -6.0150   -0.5070  -17.6690 N   0  0  0  0  0  0  0  0  0  0  0  0
   -5.0930    0.3700  -17.9990 C   0  0  0  0  0  0  0  0  0  0  0  0
   -4.6050    0.5560  -19.3230 C   0  0  0  0  0  0  0  0  0  0  0  0
   -3.6150    1.5260  -19.6290 C   0  0  0  0  0  0  0  0  0  0  0  0
   -3.1740    1.6900  -20.9170 C   0  0  0  0  0  0  0  0  0  0  0  0
   -3.7060    0.8890  -21.9510 C   0  0  0  0  0  0  0  0  0  0  0  0
   -4.6630   -0.0600  -21.6780 C   0  0  0  0  0  0  0  0  0  0  0  0
   -5.1420   -0.2520  -20.3540 C   0  0  0  0  0  0  0  0  0  0  0  0
   -5.0520   -0.6660  -22.4880 H   0  0  0  0  0  0  0  0  0  0  0  0
   -3.3510    1.0280  -22.9700 H   0  0  0  0  0  0  0  0  0  0  0  0
   -2.4210    2.4380  -21.1510 H   0  0  0  0  0  0  0  0  0  0  0  0
   -3.2160    2.1450  -18.8280 H   0  0  0  0  0  0  0  0  0  0  0  0
   -4.6860    0.9930  -17.2010 H   0  0  0  0  0  0  0  0  0  0  0  0
   -7.2730   -1.9900  -18.3680 H   0  0  0  0  0  0  0  0  0  0  0  0
   -6.0520   -2.5240  -21.7080 H   0  0  0  0  0  0  0  0  0  0  0  0
   -7.3130   -2.9160  -20.5210 H   0  0  0  0  0  0  0  0  0  0  0  0
   -7.6290   -1.0370  -23.1480 N   0  0  0  0  0  0  0  0  0  0  0  0
   -8.0350    0.2510  -23.7120 C   0  0  0  0  0  0  0  0  0  0  0  0
   -7.0500    0.6900  -24.7920 C   0  0  0  0  0  0  0  0  0  0  0  0
   -6.8870   -0.4010  -25.8490 C   0  0  0  0  0  0  0  0  0  0  0  0
   -5.8970    0.0130  -26.9250 C   0  0  0  0  0  0  0  0  0  0  0  0
   -4.6620    0.2130  -26.4180 F   0  0  0  0  0  0  0  0  0  0  0  0
   -6.2510    1.1610  -27.5380 F   0  0  0  0  0  0  0  0  0  0  0  0
   -5.7670   -0.9190  -27.8920 F   0  0  0  0  0  0  0  0  0  0  0  0
   -6.4820   -1.7270  -25.2090 C   0  0  0  0  0  0  0  0  0  0  0  0
   -7.4720   -2.1160  -24.1220 C   0  0  0  0  0  0  0  0  0  0  0  0
   -8.4360   -2.3740  -24.5940 H   0  0  0  0  0  0  0  0  0  0  0  0
   -7.1370   -3.0170  -23.6070 H   0  0  0  0  0  0  0  0  0  0  0  0
   -5.4840   -1.6330  -24.7670 H   0  0  0  0  0  0  0  0  0  0  0  0
   -6.4230   -2.5170  -25.9660 H   0  0  0  0  0  0  0  0  0  0  0  0
   -7.8380   -0.5320  -26.3770 H   0  0  0  0  0  0  0  0  0  0  0  0
   -6.0780    0.9040  -24.3310 H   0  0  0  0  0  0  0  0  0  0  0  0
   -7.3870    1.6230  -25.2560 H   0  0  0  0  0  0  0  0  0  0  0  0
   -8.0500    0.9880  -22.9070 H   0  0  0  0  0  0  0  0  0  0  0  0
   -9.0530    0.2220  -24.1300 H   0  0  0  0  0  0  0  0  0  0  0  0
  1  2  2  0  0  0  0
  2  3  1  0  0  0  0
  2 22  1  0  0  0  0
  3  4  1  0  0  0  0
  3 20  1  0  0  0  0
  3 21  1  0  0  0  0
  4  5  2  0  0  0  0
  4 13  1  0  0  0  0
  5  6  1  0  0  0  0
  5 19  1  0  0  0  0
  6  7  2  0  0  0  0
  7  8  1  0  0  0  0
  7 18  1  0  0  0  0
  8  9  2  0  0  0  0
  8 13  1  0  0  0  0
  9 10  1  0  0  0  0
  9 17  1  0  0  0  0
 10 11  2  0  0  0  0
 10 16  1  0  0  0  0
 11 12  1  0  0  0  0
 11 15  1  0  0  0  0
 12 13  2  0  0  0  0
 12 14  1  0  0  0  0
 22 23  1  0  0  0  0
 22 31  1  0  0  0  0
 23 24  1  0  0  0  0
 23 39  1  0  0  0  0
 23 40  1  0  0  0  0
 24 25  1  0  0  0  0
 24 37  1  0  0  0  0
 24 38  1  0  0  0  0
 25 26  1  0  0  0  0
 25 30  1  0  0  0  0
 25 36  1  0  0  0  0
 26 27  1  0  0  0  0
 26 28  1  0  0  0  0
 26 29  1  0  0  0  0
 30 31  1  0  0  0  0
 30 34  1  0  0  0  0
 30 35  1  0  0  0  0
 31 32  1  0  0  0  0
 31 33  1  0  0  0  0
M  END
>  <MODEL>
       6

$$$$
best_conformers_35.pdb
 OpenBabel01292518153D

 40 42  0  0  0  0  0  0  0  0999 V2000
   -8.7980   -0.7890  -21.1870 O   0  0  0  0  0  0  0  0  0  0  0  0
   -7.8620   -1.2740  -21.7880 C   0  0  0  0  0  0  0  0  0  0  0  0
   -6.8010   -2.0930  -21.0320 C   0  0  0  0  0  0  0  0  0  0  0  0
   -6.1320   -1.2150  -19.9930 C   0  0  0  0  0  0  0  0  0  0  0  0
   -6.5120   -1.2740  -18.6760 C   0  0  0  0  0  0  0  0  0  0  0  0
   -6.0150   -0.5070  -17.6690 N   0  0  0  0  0  0  0  0  0  0  0  0
   -5.0930    0.3700  -17.9990 C   0  0  0  0  0  0  0  0  0  0  0  0
   -4.6050    0.5560  -19.3230 C   0  0  0  0  0  0  0  0  0  0  0  0
   -3.6150    1.5260  -19.6290 C   0  0  0  0  0  0  0  0  0  0  0  0
   -3.1740    1.6900  -20.9170 C   0  0  0  0  0  0  0  0  0  0  0  0
   -3.7060    0.8890  -21.9510 C   0  0  0  0  0  0  0  0  0  0  0  0
   -4.6630   -0.0600  -21.6780 C   0  0  0  0  0  0  0  0  0  0  0  0
   -5.1420   -0.2520  -20.3540 C   0  0  0  0  0  0  0  0  0  0  0  0
   -5.0520   -0.6660  -22.4880 H   0  0  0  0  0  0  0  0  0  0  0  0
   -3.3510    1.0280  -22.9700 H   0  0  0  0  0  0  0  0  0  0  0  0
   -2.4210    2.4380  -21.1510 H   0  0  0  0  0  0  0  0  0  0  0  0
   -3.2160    2.1450  -18.8280 H   0  0  0  0  0  0  0  0  0  0  0  0
   -4.6860    0.9930  -17.2010 H   0  0  0  0  0  0  0  0  0  0  0  0
   -7.2730   -1.9900  -18.3680 H   0  0  0  0  0  0  0  0  0  0  0  0
   -7.3130   -2.9160  -20.5210 H   0  0  0  0  0  0  0  0  0  0  0  0
   -6.0520   -2.5240  -21.7080 H   0  0  0  0  0  0  0  0  0  0  0  0
   -7.6290   -1.0370  -23.1480 N   0  0  0  0  0  0  0  0  0  0  0  0
   -7.4720   -2.1160  -24.1220 C   0  0  0  0  0  0  0  0  0  0  0  0
   -6.4820   -1.7270  -25.2090 C   0  0  0  0  0  0  0  0  0  0  0  0
   -6.8870   -0.4010  -25.8490 C   0  0  0  0  0  0  0  0  0  0  0  0
   -5.8970    0.0130  -26.9250 C   0  0  0  0  0  0  0  0  0  0  0  0
   -6.2510    1.1620  -27.5380 F   0  0  0  0  0  0  0  0  0  0  0  0
   -5.7670   -0.9190  -27.8920 F   0  0  0  0  0  0  0  0  0  0  0  0
   -4.6620    0.2140  -26.4170 F   0  0  0  0  0  0  0  0  0  0  0  0
   -7.0500    0.6900  -24.7920 C   0  0  0  0  0  0  0  0  0  0  0  0
   -8.0350    0.2510  -23.7110 C   0  0  0  0  0  0  0  0  0  0  0  0
   -8.0500    0.9880  -22.9070 H   0  0  0  0  0  0  0  0  0  0  0  0
   -9.0530    0.2220  -24.1300 H   0  0  0  0  0  0  0  0  0  0  0  0
   -7.3870    1.6240  -25.2560 H   0  0  0  0  0  0  0  0  0  0  0  0
   -6.0780    0.9040  -24.3310 H   0  0  0  0  0  0  0  0  0  0  0  0
   -7.8380   -0.5310  -26.3770 H   0  0  0  0  0  0  0  0  0  0  0  0
   -5.4840   -1.6320  -24.7670 H   0  0  0  0  0  0  0  0  0  0  0  0
   -6.4230   -2.5160  -25.9660 H   0  0  0  0  0  0  0  0  0  0  0  0
   -7.1370   -3.0170  -23.6070 H   0  0  0  0  0  0  0  0  0  0  0  0
   -8.4360   -2.3740  -24.5940 H   0  0  0  0  0  0  0  0  0  0  0  0
  1  2  2  0  0  0  0
  2  3  1  0  0  0  0
  2 22  1  0  0  0  0
  3  4  1  0  0  0  0
  3 20  1  0  0  0  0
  3 21  1  0  0  0  0
  4  5  2  0  0  0  0
  4 13  1  0  0  0  0
  5  6  1  0  0  0  0
  5 19  1  0  0  0  0
  6  7  2  0  0  0  0
  7  8  1  0  0  0  0
  7 18  1  0  0  0  0
  8  9  2  0  0  0  0
  8 13  1  0  0  0  0
  9 10  1  0  0  0  0
  9 17  1  0  0  0  0
 10 11  2  0  0  0  0
 10 16  1  0  0  0  0
 11 12  1  0  0  0  0
 11 15  1  0  0  0  0
 12 13  2  0  0  0  0
 12 14  1  0  0  0  0
 22 23  1  0  0  0  0
 22 31  1  0  0  0  0
 23 24  1  0  0  0  0
 23 39  1  0  0  0  0
 23 40  1  0  0  0  0
 24 25  1  0  0  0  0
 24 37  1  0  0  0  0
 24 38  1  0  0  0  0
 25 26  1  0  0  0  0
 25 30  1  0  0  0  0
 25 36  1  0  0  0  0
 26 27  1  0  0  0  0
 26 28  1  0  0  0  0
 26 29  1  0  0  0  0
 30 31  1  0  0  0  0
 30 34  1  0  0  0  0
 30 35  1  0  0  0  0
 31 32  1  0  0  0  0
 31 33  1  0  0  0  0
M  END
>  <MODEL>
       7

$$$$
best_conformers_35.pdb
 OpenBabel01292518153D

 40 42  0  0  0  0  0  0  0  0999 V2000
   -8.7980   -0.7900  -21.1870 O   0  0  0  0  0  0  0  0  0  0  0  0
   -7.8620   -1.2740  -21.7880 C   0  0  0  0  0  0  0  0  0  0  0  0
   -6.8010   -2.0930  -21.0320 C   0  0  0  0  0  0  0  0  0  0  0  0
   -6.1320   -1.2150  -19.9930 C   0  0  0  0  0  0  0  0  0  0  0  0
   -6.5120   -1.2740  -18.6760 C   0  0  0  0  0  0  0  0  0  0  0  0
   -6.0150   -0.5070  -17.6690 N   0  0  0  0  0  0  0  0  0  0  0  0
   -5.0930    0.3700  -17.9990 C   0  0  0  0  0  0  0  0  0  0  0  0
   -4.6050    0.5560  -19.3230 C   0  0  0  0  0  0  0  0  0  0  0  0
   -3.6150    1.5260  -19.6290 C   0  0  0  0  0  0  0  0  0  0  0  0
   -3.1740    1.6900  -20.9170 C   0  0  0  0  0  0  0  0  0  0  0  0
   -3.7060    0.8890  -21.9510 C   0  0  0  0  0  0  0  0  0  0  0  0
   -4.6630   -0.0600  -21.6780 C   0  0  0  0  0  0  0  0  0  0  0  0
   -5.1420   -0.2520  -20.3540 C   0  0  0  0  0  0  0  0  0  0  0  0
   -5.0520   -0.6660  -22.4880 H   0  0  0  0  0  0  0  0  0  0  0  0
   -3.3510    1.0280  -22.9700 H   0  0  0  0  0  0  0  0  0  0  0  0
   -2.4210    2.4380  -21.1510 H   0  0  0  0  0  0  0  0  0  0  0  0
   -3.2160    2.1450  -18.8280 H   0  0  0  0  0  0  0  0  0  0  0  0
   -4.6860    0.9930  -17.2010 H   0  0  0  0  0  0  0  0  0  0  0  0
   -7.2730   -1.9900  -18.3680 H   0  0  0  0  0  0  0  0  0  0  0  0
   -7.3130   -2.9160  -20.5210 H   0  0  0  0  0  0  0  0  0  0  0  0
   -6.0520   -2.5240  -21.7080 H   0  0  0  0  0  0  0  0  0  0  0  0
   -7.6290   -1.0370  -23.1480 N   0  0  0  0  0  0  0  0  0  0  0  0
   -8.0350    0.2510  -23.7110 C   0  0  0  0  0  0  0  0  0  0  0  0
   -7.0500    0.6900  -24.7920 C   0  0  0  0  0  0  0  0  0  0  0  0
   -6.8870   -0.4010  -25.8490 C   0  0  0  0  0  0  0  0  0  0  0  0
   -5.8970    0.0140  -26.9250 C   0  0  0  0  0  0  0  0  0  0  0  0
   -4.6620    0.2140  -26.4170 F   0  0  0  0  0  0  0  0  0  0  0  0
   -5.7670   -0.9180  -27.8920 F   0  0  0  0  0  0  0  0  0  0  0  0
   -6.2510    1.1620  -27.5380 F   0  0  0  0  0  0  0  0  0  0  0  0
   -6.4820   -1.7270  -25.2090 C   0  0  0  0  0  0  0  0  0  0  0  0
   -7.4720   -2.1160  -24.1220 C   0  0  0  0  0  0  0  0  0  0  0  0
   -8.4360   -2.3740  -24.5940 H   0  0  0  0  0  0  0  0  0  0  0  0
   -7.1370   -3.0170  -23.6070 H   0  0  0  0  0  0  0  0  0  0  0  0
   -5.4850   -1.6320  -24.7670 H   0  0  0  0  0  0  0  0  0  0  0  0
   -6.4230   -2.5160  -25.9660 H   0  0  0  0  0  0  0  0  0  0  0  0
   -7.8380   -0.5310  -26.3770 H   0  0  0  0  0  0  0  0  0  0  0  0
   -6.0780    0.9040  -24.3310 H   0  0  0  0  0  0  0  0  0  0  0  0
   -7.3870    1.6240  -25.2560 H   0  0  0  0  0  0  0  0  0  0  0  0
   -8.0500    0.9880  -22.9070 H   0  0  0  0  0  0  0  0  0  0  0  0
   -9.0530    0.2220  -24.1300 H   0  0  0  0  0  0  0  0  0  0  0  0
  1  2  2  0  0  0  0
  2  3  1  0  0  0  0
  2 22  1  0  0  0  0
  3  4  1  0  0  0  0
  3 20  1  0  0  0  0
  3 21  1  0  0  0  0
  4  5  2  0  0  0  0
  4 13  1  0  0  0  0
  5  6  1  0  0  0  0
  5 19  1  0  0  0  0
  6  7  2  0  0  0  0
  7  8  1  0  0  0  0
  7 18  1  0  0  0  0
  8  9  2  0  0  0  0
  8 13  1  0  0  0  0
  9 10  1  0  0  0  0
  9 17  1  0  0  0  0
 10 11  2  0  0  0  0
 10 16  1  0  0  0  0
 11 12  1  0  0  0  0
 11 15  1  0  0  0  0
 12 13  2  0  0  0  0
 12 14  1  0  0  0  0
 22 23  1  0  0  0  0
 22 31  1  0  0  0  0
 23 24  1  0  0  0  0
 23 39  1  0  0  0  0
 23 40  1  0  0  0  0
 24 25  1  0  0  0  0
 24 37  1  0  0  0  0
 24 38  1  0  0  0  0
 25 26  1  0  0  0  0
 25 30  1  0  0  0  0
 25 36  1  0  0  0  0
 26 27  1  0  0  0  0
 26 28  1  0  0  0  0
 26 29  1  0  0  0  0
 30 31  1  0  0  0  0
 30 34  1  0  0  0  0
 30 35  1  0  0  0  0
 31 32  1  0  0  0  0
 31 33  1  0  0  0  0
M  END
>  <MODEL>
       8

$$$$
best_conformers_35.pdb
 OpenBabel01292518153D

 40 42  0  0  0  0  0  0  0  0999 V2000
   -8.7980   -0.7890  -21.1870 O   0  0  0  0  0  0  0  0  0  0  0  0
   -7.8620   -1.2740  -21.7880 C   0  0  0  0  0  0  0  0  0  0  0  0
   -6.8010   -2.0930  -21.0320 C   0  0  0  0  0  0  0  0  0  0  0  0
   -6.1320   -1.2150  -19.9930 C   0  0  0  0  0  0  0  0  0  0  0  0
   -6.5120   -1.2740  -18.6760 C   0  0  0  0  0  0  0  0  0  0  0  0
   -6.0150   -0.5070  -17.6690 N   0  0  0  0  0  0  0  0  0  0  0  0
   -5.0930    0.3700  -17.9990 C   0  0  0  0  0  0  0  0  0  0  0  0
   -4.6050    0.5560  -19.3230 C   0  0  0  0  0  0  0  0  0  0  0  0
   -3.6150    1.5260  -19.6290 C   0  0  0  0  0  0  0  0  0  0  0  0
   -3.1740    1.6900  -20.9170 C   0  0  0  0  0  0  0  0  0  0  0  0
   -3.7060    0.8890  -21.9510 C   0  0  0  0  0  0  0  0  0  0  0  0
   -4.6630   -0.0600  -21.6780 C   0  0  0  0  0  0  0  0  0  0  0  0
   -5.1420   -0.2520  -20.3540 C   0  0  0  0  0  0  0  0  0  0  0  0
   -5.0520   -0.6660  -22.4880 H   0  0  0  0  0  0  0  0  0  0  0  0
   -3.3510    1.0280  -22.9700 H   0  0  0  0  0  0  0  0  0  0  0  0
   -2.4210    2.4380  -21.1510 H   0  0  0  0  0  0  0  0  0  0  0  0
   -3.2160    2.1450  -18.8280 H   0  0  0  0  0  0  0  0  0  0  0  0
   -4.6860    0.9930  -17.2010 H   0  0  0  0  0  0  0  0  0  0  0  0
   -7.2730   -1.9900  -18.3680 H   0  0  0  0  0  0  0  0  0  0  0  0
   -6.0520   -2.5240  -21.7080 H   0  0  0  0  0  0  0  0  0  0  0  0
   -7.3130   -2.9160  -20.5210 H   0  0  0  0  0  0  0  0  0  0  0  0
   -7.6290   -1.0370  -23.1480 N   0  0  0  0  0  0  0  0  0  0  0  0
   -7.4720   -2.1160  -24.1220 C   0  0  0  0  0  0  0  0  0  0  0  0
   -6.4820   -1.7270  -25.2090 C   0  0  0  0  0  0  0  0  0  0  0  0
   -6.8870   -0.4010  -25.8490 C   0  0  0  0  0  0  0  0  0  0  0  0
   -5.8970    0.0130  -26.9250 C   0  0  0  0  0  0  0  0  0  0  0  0
   -4.6620    0.2140  -26.4180 F   0  0  0  0  0  0  0  0  0  0  0  0
   -6.2510    1.1610  -27.5380 F   0  0  0  0  0  0  0  0  0  0  0  0
   -5.7670   -0.9190  -27.8920 F   0  0  0  0  0  0  0  0  0  0  0  0
   -7.0500    0.6900  -24.7920 C   0  0  0  0  0  0  0  0  0  0  0  0
   -8.0350    0.2510  -23.7110 C   0  0  0  0  0  0  0  0  0  0  0  0
   -8.0500    0.9880  -22.9070 H   0  0  0  0  0  0  0  0  0  0  0  0
   -9.0530    0.2220  -24.1300 H   0  0  0  0  0  0  0  0  0  0  0  0
   -7.3870    1.6230  -25.2560 H   0  0  0  0  0  0  0  0  0  0  0  0
   -6.0780    0.9040  -24.3310 H   0  0  0  0  0  0  0  0  0  0  0  0
   -7.8380   -0.5310  -26.3770 H   0  0  0  0  0  0  0  0  0  0  0  0
   -5.4840   -1.6320  -24.7670 H   0  0  0  0  0  0  0  0  0  0  0  0
   -6.4230   -2.5170  -25.9660 H   0  0  0  0  0  0  0  0  0  0  0  0
   -7.1370   -3.0170  -23.6070 H   0  0  0  0  0  0  0  0  0  0  0  0
   -8.4360   -2.3740  -24.5940 H   0  0  0  0  0  0  0  0  0  0  0  0
  1  2  2  0  0  0  0
  2  3  1  0  0  0  0
  2 22  1  0  0  0  0
  3  4  1  0  0  0  0
  3 20  1  0  0  0  0
  3 21  1  0  0  0  0
  4  5  2  0  0  0  0
  4 13  1  0  0  0  0
  5  6  1  0  0  0  0
  5 19  1  0  0  0  0
  6  7  2  0  0  0  0
  7  8  1  0  0  0  0
  7 18  1  0  0  0  0
  8  9  2  0  0  0  0
  8 13  1  0  0  0  0
  9 10  1  0  0  0  0
  9 17  1  0  0  0  0
 10 11  2  0  0  0  0
 10 16  1  0  0  0  0
 11 12  1  0  0  0  0
 11 15  1  0  0  0  0
 12 13  2  0  0  0  0
 12 14  1  0  0  0  0
 22 23  1  0  0  0  0
 22 31  1  0  0  0  0
 23 24  1  0  0  0  0
 23 39  1  0  0  0  0
 23 40  1  0  0  0  0
 24 25  1  0  0  0  0
 24 37  1  0  0  0  0
 24 38  1  0  0  0  0
 25 26  1  0  0  0  0
 25 30  1  0  0  0  0
 25 36  1  0  0  0  0
 26 27  1  0  0  0  0
 26 28  1  0  0  0  0
 26 29  1  0  0  0  0
 30 31  1  0  0  0  0
 30 34  1  0  0  0  0
 30 35  1  0  0  0  0
 31 32  1  0  0  0  0
 31 33  1  0  0  0  0
M  END
>  <MODEL>
       9

$$$$
best_conformers_35.pdb
 OpenBabel01292518153D

 40 42  0  0  0  0  0  0  0  0999 V2000
   -8.7980   -0.7900  -21.1870 O   0  0  0  0  0  0  0  0  0  0  0  0
   -7.8620   -1.2740  -21.7880 C   0  0  0  0  0  0  0  0  0  0  0  0
   -6.8010   -2.0930  -21.0320 C   0  0  0  0  0  0  0  0  0  0  0  0
   -6.1320   -1.2150  -19.9930 C   0  0  0  0  0  0  0  0  0  0  0  0
   -6.5120   -1.2740  -18.6760 C   0  0  0  0  0  0  0  0  0  0  0  0
   -6.0150   -0.5070  -17.6690 N   0  0  0  0  0  0  0  0  0  0  0  0
   -5.0930    0.3700  -17.9990 C   0  0  0  0  0  0  0  0  0  0  0  0
   -4.6050    0.5560  -19.3230 C   0  0  0  0  0  0  0  0  0  0  0  0
   -3.6150    1.5260  -19.6290 C   0  0  0  0  0  0  0  0  0  0  0  0
   -3.1740    1.6900  -20.9170 C   0  0  0  0  0  0  0  0  0  0  0  0
   -3.7060    0.8890  -21.9510 C   0  0  0  0  0  0  0  0  0  0  0  0
   -4.6630   -0.0600  -21.6780 C   0  0  0  0  0  0  0  0  0  0  0  0
   -5.1420   -0.2520  -20.3540 C   0  0  0  0  0  0  0  0  0  0  0  0
   -5.0520   -0.6660  -22.4880 H   0  0  0  0  0  0  0  0  0  0  0  0
   -3.3510    1.0280  -22.9700 H   0  0  0  0  0  0  0  0  0  0  0  0
   -2.4210    2.4380  -21.1510 H   0  0  0  0  0  0  0  0  0  0  0  0
   -3.2160    2.1450  -18.8280 H   0  0  0  0  0  0  0  0  0  0  0  0
   -4.6860    0.9930  -17.2010 H   0  0  0  0  0  0  0  0  0  0  0  0
   -7.2730   -1.9900  -18.3680 H   0  0  0  0  0  0  0  0  0  0  0  0
   -6.0520   -2.5240  -21.7080 H   0  0  0  0  0  0  0  0  0  0  0  0
   -7.3130   -2.9160  -20.5210 H   0  0  0  0  0  0  0  0  0  0  0  0
   -7.6290   -1.0370  -23.1480 N   0  0  0  0  0  0  0  0  0  0  0  0
   -7.4720   -2.1160  -24.1220 C   0  0  0  0  0  0  0  0  0  0  0  0
   -6.4820   -1.7270  -25.2090 C   0  0  0  0  0  0  0  0  0  0  0  0
   -6.8870   -0.4010  -25.8490 C   0  0  0  0  0  0  0  0  0  0  0  0
   -5.8970    0.0130  -26.9250 C   0  0  0  0  0  0  0  0  0  0  0  0
   -6.2510    1.1610  -27.5380 F   0  0  0  0  0  0  0  0  0  0  0  0
   -4.6620    0.2140  -26.4180 F   0  0  0  0  0  0  0  0  0  0  0  0
   -5.7670   -0.9190  -27.8920 F   0  0  0  0  0  0  0  0  0  0  0  0
   -7.0500    0.6900  -24.7920 C   0  0  0  0  0  0  0  0  0  0  0  0
   -8.0350    0.2510  -23.7110 C   0  0  0  0  0  0  0  0  0  0  0  0
   -9.0530    0.2220  -24.1300 H   0  0  0  0  0  0  0  0  0  0  0  0
   -8.0500    0.9880  -22.9070 H   0  0  0  0  0  0  0  0  0  0  0  0
   -6.0780    0.9040  -24.3310 H   0  0  0  0  0  0  0  0  0  0  0  0
   -7.3870    1.6240  -25.2560 H   0  0  0  0  0  0  0  0  0  0  0  0
   -7.8380   -0.5310  -26.3770 H   0  0  0  0  0  0  0  0  0  0  0  0
   -5.4850   -1.6320  -24.7670 H   0  0  0  0  0  0  0  0  0  0  0  0
   -6.4240   -2.5170  -25.9660 H   0  0  0  0  0  0  0  0  0  0  0  0
   -8.4360   -2.3740  -24.5940 H   0  0  0  0  0  0  0  0  0  0  0  0
   -7.1370   -3.0170  -23.6070 H   0  0  0  0  0  0  0  0  0  0  0  0
  1  2  2  0  0  0  0
  2  3  1  0  0  0  0
  2 22  1  0  0  0  0
  3  4  1  0  0  0  0
  3 20  1  0  0  0  0
  3 21  1  0  0  0  0
  4  5  2  0  0  0  0
  4 13  1  0  0  0  0
  5  6  1  0  0  0  0
  5 19  1  0  0  0  0
  6  7  2  0  0  0  0
  7  8  1  0  0  0  0
  7 18  1  0  0  0  0
  8  9  2  0  0  0  0
  8 13  1  0  0  0  0
  9 10  1  0  0  0  0
  9 17  1  0  0  0  0
 10 11  2  0  0  0  0
 10 16  1  0  0  0  0
 11 12  1  0  0  0  0
 11 15  1  0  0  0  0
 12 13  2  0  0  0  0
 12 14  1  0  0  0  0
 22 23  1  0  0  0  0
 22 31  1  0  0  0  0
 23 24  1  0  0  0  0
 23 39  1  0  0  0  0
 23 40  1  0  0  0  0
 24 25  1  0  0  0  0
 24 37  1  0  0  0  0
 24 38  1  0  0  0  0
 25 26  1  0  0  0  0
 25 30  1  0  0  0  0
 25 36  1  0  0  0  0
 26 27  1  0  0  0  0
 26 28  1  0  0  0  0
 26 29  1  0  0  0  0
 30 31  1  0  0  0  0
 30 34  1  0  0  0  0
 30 35  1  0  0  0  0
 31 32  1  0  0  0  0
 31 33  1  0  0  0  0
M  END
>  <MODEL>
      10

$$$$
best_conformers_35.pdb
 OpenBabel01292518153D

 40 42  0  0  0  0  0  0  0  0999 V2000
   -8.7980   -0.7900  -21.1870 O   0  0  0  0  0  0  0  0  0  0  0  0
   -7.8620   -1.2740  -21.7880 C   0  0  0  0  0  0  0  0  0  0  0  0
   -6.8010   -2.0930  -21.0320 C   0  0  0  0  0  0  0  0  0  0  0  0
   -6.1320   -1.2150  -19.9930 C   0  0  0  0  0  0  0  0  0  0  0  0
   -6.5120   -1.2740  -18.6760 C   0  0  0  0  0  0  0  0  0  0  0  0
   -6.0150   -0.5070  -17.6690 N   0  0  0  0  0  0  0  0  0  0  0  0
   -5.0930    0.3700  -17.9990 C   0  0  0  0  0  0  0  0  0  0  0  0
   -4.6050    0.5560  -19.3230 C   0  0  0  0  0  0  0  0  0  0  0  0
   -3.6150    1.5260  -19.6290 C   0  0  0  0  0  0  0  0  0  0  0  0
   -3.1740    1.6900  -20.9170 C   0  0  0  0  0  0  0  0  0  0  0  0
   -3.7060    0.8890  -21.9510 C   0  0  0  0  0  0  0  0  0  0  0  0
   -4.6630   -0.0600  -21.6780 C   0  0  0  0  0  0  0  0  0  0  0  0
   -5.1420   -0.2520  -20.3540 C   0  0  0  0  0  0  0  0  0  0  0  0
   -5.0520   -0.6660  -22.4880 H   0  0  0  0  0  0  0  0  0  0  0  0
   -3.3510    1.0280  -22.9700 H   0  0  0  0  0  0  0  0  0  0  0  0
   -2.4210    2.4380  -21.1510 H   0  0  0  0  0  0  0  0  0  0  0  0
   -3.2160    2.1450  -18.8280 H   0  0  0  0  0  0  0  0  0  0  0  0
   -4.6860    0.9930  -17.2010 H   0  0  0  0  0  0  0  0  0  0  0  0
   -7.2730   -1.9900  -18.3680 H   0  0  0  0  0  0  0  0  0  0  0  0
   -7.3130   -2.9160  -20.5210 H   0  0  0  0  0  0  0  0  0  0  0  0
   -6.0520   -2.5240  -21.7080 H   0  0  0  0  0  0  0  0  0  0  0  0
   -7.6290   -1.0370  -23.1480 N   0  0  0  0  0  0  0  0  0  0  0  0
   -8.0350    0.2510  -23.7110 C   0  0  0  0  0  0  0  0  0  0  0  0
   -7.0500    0.6900  -24.7920 C   0  0  0  0  0  0  0  0  0  0  0  0
   -6.8880   -0.4010  -25.8490 C   0  0  0  0  0  0  0  0  0  0  0  0
   -5.8970    0.0130  -26.9250 C   0  0  0  0  0  0  0  0  0  0  0  0
   -6.2510    1.1610  -27.5380 F   0  0  0  0  0  0  0  0  0  0  0  0
   -4.6620    0.2140  -26.4180 F   0  0  0  0  0  0  0  0  0  0  0  0
   -5.7670   -0.9190  -27.8920 F   0  0  0  0  0  0  0  0  0  0  0  0
   -6.4820   -1.7270  -25.2090 C   0  0  0  0  0  0  0  0  0  0  0  0
   -7.4720   -2.1160  -24.1220 C   0  0  0  0  0  0  0  0  0  0  0  0
   -8.4360   -2.3740  -24.5940 H   0  0  0  0  0  0  0  0  0  0  0  0
   -7.1370   -3.0170  -23.6070 H   0  0  0  0  0  0  0  0  0  0  0  0
   -6.4240   -2.5170  -25.9660 H   0  0  0  0  0  0  0  0  0  0  0  0
   -5.4850   -1.6320  -24.7670 H   0  0  0  0  0  0  0  0  0  0  0  0
   -7.8380   -0.5310  -26.3770 H   0  0  0  0  0  0  0  0  0  0  0  0
   -6.0780    0.9040  -24.3310 H   0  0  0  0  0  0  0  0  0  0  0  0
   -7.3870    1.6240  -25.2560 H   0  0  0  0  0  0  0  0  0  0  0  0
   -9.0530    0.2220  -24.1300 H   0  0  0  0  0  0  0  0  0  0  0  0
   -8.0500    0.9880  -22.9070 H   0  0  0  0  0  0  0  0  0  0  0  0
  1  2  2  0  0  0  0
  2  3  1  0  0  0  0
  2 22  1  0  0  0  0
  3  4  1  0  0  0  0
  3 20  1  0  0  0  0
  3 21  1  0  0  0  0
  4  5  2  0  0  0  0
  4 13  1  0  0  0  0
  5  6  1  0  0  0  0
  5 19  1  0  0  0  0
  6  7  2  0  0  0  0
  7  8  1  0  0  0  0
  7 18  1  0  0  0  0
  8  9  2  0  0  0  0
  8 13  1  0  0  0  0
  9 10  1  0  0  0  0
  9 17  1  0  0  0  0
 10 11  2  0  0  0  0
 10 16  1  0  0  0  0
 11 12  1  0  0  0  0
 11 15  1  0  0  0  0
 12 13  2  0  0  0  0
 12 14  1  0  0  0  0
 22 23  1  0  0  0  0
 22 31  1  0  0  0  0
 23 24  1  0  0  0  0
 23 39  1  0  0  0  0
 23 40  1  0  0  0  0
 24 25  1  0  0  0  0
 24 37  1  0  0  0  0
 24 38  1  0  0  0  0
 25 26  1  0  0  0  0
 25 30  1  0  0  0  0
 25 36  1  0  0  0  0
 26 27  1  0  0  0  0
 26 28  1  0  0  0  0
 26 29  1  0  0  0  0
 30 31  1  0  0  0  0
 30 34  1  0  0  0  0
 30 35  1  0  0  0  0
 31 32  1  0  0  0  0
 31 33  1  0  0  0  0
M  END
>  <MODEL>
      11

$$$$
best_conformers_35.pdb
 OpenBabel01292518153D

 40 42  0  0  0  0  0  0  0  0999 V2000
   -8.7980   -0.7900  -21.1870 O   0  0  0  0  0  0  0  0  0  0  0  0
   -7.8620   -1.2740  -21.7880 C   0  0  0  0  0  0  0  0  0  0  0  0
   -6.8010   -2.0930  -21.0320 C   0  0  0  0  0  0  0  0  0  0  0  0
   -6.1320   -1.2150  -19.9930 C   0  0  0  0  0  0  0  0  0  0  0  0
   -6.5120   -1.2740  -18.6760 C   0  0  0  0  0  0  0  0  0  0  0  0
   -6.0150   -0.5070  -17.6690 N   0  0  0  0  0  0  0  0  0  0  0  0
   -5.0930    0.3700  -17.9990 C   0  0  0  0  0  0  0  0  0  0  0  0
   -4.6050    0.5560  -19.3230 C   0  0  0  0  0  0  0  0  0  0  0  0
   -3.6150    1.5260  -19.6290 C   0  0  0  0  0  0  0  0  0  0  0  0
   -3.1740    1.6900  -20.9170 C   0  0  0  0  0  0  0  0  0  0  0  0
   -3.7060    0.8890  -21.9510 C   0  0  0  0  0  0  0  0  0  0  0  0
   -4.6630   -0.0600  -21.6780 C   0  0  0  0  0  0  0  0  0  0  0  0
   -5.1420   -0.2520  -20.3540 C   0  0  0  0  0  0  0  0  0  0  0  0
   -5.0520   -0.6660  -22.4880 H   0  0  0  0  0  0  0  0  0  0  0  0
   -3.3510    1.0280  -22.9700 H   0  0  0  0  0  0  0  0  0  0  0  0
   -2.4210    2.4380  -21.1510 H   0  0  0  0  0  0  0  0  0  0  0  0
   -3.2160    2.1450  -18.8280 H   0  0  0  0  0  0  0  0  0  0  0  0
   -4.6860    0.9930  -17.2010 H   0  0  0  0  0  0  0  0  0  0  0  0
   -7.2730   -1.9900  -18.3680 H   0  0  0  0  0  0  0  0  0  0  0  0
   -6.0520   -2.5240  -21.7080 H   0  0  0  0  0  0  0  0  0  0  0  0
   -7.3130   -2.9160  -20.5210 H   0  0  0  0  0  0  0  0  0  0  0  0
   -7.6290   -1.0370  -23.1480 N   0  0  0  0  0  0  0  0  0  0  0  0
   -7.4720   -2.1150  -24.1220 C   0  0  0  0  0  0  0  0  0  0  0  0
   -6.4820   -1.7270  -25.2090 C   0  0  0  0  0  0  0  0  0  0  0  0
   -6.8880   -0.4010  -25.8490 C   0  0  0  0  0  0  0  0  0  0  0  0
   -5.8970    0.0140  -26.9250 C   0  0  0  0  0  0  0  0  0  0  0  0
   -5.7680   -0.9180  -27.8920 F   0  0  0  0  0  0  0  0  0  0  0  0
   -6.2510    1.1620  -27.5370 F   0  0  0  0  0  0  0  0  0  0  0  0
   -4.6620    0.2140  -26.4170 F   0  0  0  0  0  0  0  0  0  0  0  0
   -7.0500    0.6900  -24.7920 C   0  0  0  0  0  0  0  0  0  0  0  0
   -8.0350    0.2510  -23.7110 C   0  0  0  0  0  0  0  0  0  0  0  0
   -8.0500    0.9880  -22.9070 H   0  0  0  0  0  0  0  0  0  0  0  0
   -9.0530    0.2220  -24.1290 H   0  0  0  0  0  0  0  0  0  0  0  0
   -7.3870    1.6240  -25.2550 H   0  0  0  0  0  0  0  0  0  0  0  0
   -6.0780    0.9050  -24.3310 H   0  0  0  0  0  0  0  0  0  0  0  0
   -7.8380   -0.5310  -26.3760 H   0  0  0  0  0  0  0  0  0  0  0  0
   -6.4240   -2.5160  -25.9660 H   0  0  0  0  0  0  0  0  0  0  0  0
   -5.4850   -1.6320  -24.7670 H   0  0  0  0  0  0  0  0  0  0  0  0
   -8.4360   -2.3740  -24.5940 H   0  0  0  0  0  0  0  0  0  0  0  0
   -7.1370   -3.0160  -23.6070 H   0  0  0  0  0  0  0  0  0  0  0  0
  1  2  2  0  0  0  0
  2  3  1  0  0  0  0
  2 22  1  0  0  0  0
  3  4  1  0  0  0  0
  3 20  1  0  0  0  0
  3 21  1  0  0  0  0
  4  5  2  0  0  0  0
  4 13  1  0  0  0  0
  5  6  1  0  0  0  0
  5 19  1  0  0  0  0
  6  7  2  0  0  0  0
  7  8  1  0  0  0  0
  7 18  1  0  0  0  0
  8  9  2  0  0  0  0
  8 13  1  0  0  0  0
  9 10  1  0  0  0  0
  9 17  1  0  0  0  0
 10 11  2  0  0  0  0
 10 16  1  0  0  0  0
 11 12  1  0  0  0  0
 11 15  1  0  0  0  0
 12 13  2  0  0  0  0
 12 14  1  0  0  0  0
 22 23  1  0  0  0  0
 22 31  1  0  0  0  0
 23 24  1  0  0  0  0
 23 39  1  0  0  0  0
 23 40  1  0  0  0  0
 24 25  1  0  0  0  0
 24 37  1  0  0  0  0
 24 38  1  0  0  0  0
 25 26  1  0  0  0  0
 25 30  1  0  0  0  0
 25 36  1  0  0  0  0
 26 27  1  0  0  0  0
 26 28  1  0  0  0  0
 26 29  1  0  0  0  0
 30 31  1  0  0  0  0
 30 34  1  0  0  0  0
 30 35  1  0  0  0  0
 31 32  1  0  0  0  0
 31 33  1  0  0  0  0
M  END
>  <MODEL>
      12

$$$$
best_conformers_35.pdb
 OpenBabel01292518153D

 40 42  0  0  0  0  0  0  0  0999 V2000
   -8.6880   -0.6680  -21.2420 O   0  0  0  0  0  0  0  0  0  0  0  0
   -7.8340   -1.2920  -21.8400 C   0  0  0  0  0  0  0  0  0  0  0  0
   -6.7900   -2.0940  -21.0340 C   0  0  0  0  0  0  0  0  0  0  0  0
   -6.1310   -1.2150  -19.9920 C   0  0  0  0  0  0  0  0  0  0  0  0
   -6.5120   -1.2740  -18.6750 C   0  0  0  0  0  0  0  0  0  0  0  0
   -6.0160   -0.5060  -17.6680 N   0  0  0  0  0  0  0  0  0  0  0  0
   -5.0930    0.3700  -17.9980 C   0  0  0  0  0  0  0  0  0  0  0  0
   -4.6040    0.5550  -19.3220 C   0  0  0  0  0  0  0  0  0  0  0  0
   -3.6130    1.5250  -19.6280 C   0  0  0  0  0  0  0  0  0  0  0  0
   -3.1710    1.6870  -20.9150 C   0  0  0  0  0  0  0  0  0  0  0  0
   -3.7030    0.8870  -21.9500 C   0  0  0  0  0  0  0  0  0  0  0  0
   -4.6630   -0.0600  -21.6790 C   0  0  0  0  0  0  0  0  0  0  0  0
   -5.1400   -0.2530  -20.3530 C   0  0  0  0  0  0  0  0  0  0  0  0
   -5.0600   -0.6620  -22.4930 H   0  0  0  0  0  0  0  0  0  0  0  0
   -3.3510    1.0260  -22.9690 H   0  0  0  0  0  0  0  0  0  0  0  0
   -2.4160    2.4340  -21.1510 H   0  0  0  0  0  0  0  0  0  0  0  0
   -3.2140    2.1430  -18.8260 H   0  0  0  0  0  0  0  0  0  0  0  0
   -4.6850    0.9930  -17.2000 H   0  0  0  0  0  0  0  0  0  0  0  0
   -7.2720   -1.9900  -18.3680 H   0  0  0  0  0  0  0  0  0  0  0  0
   -7.3260   -2.9040  -20.5230 H   0  0  0  0  0  0  0  0  0  0  0  0
   -6.0270   -2.5560  -21.6740 H   0  0  0  0  0  0  0  0  0  0  0  0
   -7.7490   -1.2700  -23.2300 N   0  0  0  0  0  0  0  0  0  0  0  0
   -7.8700    0.0200  -23.9150 C   0  0  0  0  0  0  0  0  0  0  0  0
   -8.6180   -0.1080  -25.2370 C   0  0  0  0  0  0  0  0  0  0  0  0
   -8.0810   -1.2220  -26.1320 C   0  0  0  0  0  0  0  0  0  0  0  0
   -6.7910   -0.8400  -26.8470 C   0  0  0  0  0  0  0  0  0  0  0  0
   -6.9370    0.2800  -27.5840 F   0  0  0  0  0  0  0  0  0  0  0  0
   -5.7630   -0.6080  -26.0050 F   0  0  0  0  0  0  0  0  0  0  0  0
   -6.3800   -1.8070  -27.6910 F   0  0  0  0  0  0  0  0  0  0  0  0
   -7.9570   -2.5240  -25.3450 C   0  0  0  0  0  0  0  0  0  0  0  0
   -7.2110   -2.3720  -24.0170 C   0  0  0  0  0  0  0  0  0  0  0  0
   -7.3400   -3.2990  -23.4510 H   0  0  0  0  0  0  0  0  0  0  0  0
   -6.1360   -2.2560  -24.2090 H   0  0  0  0  0  0  0  0  0  0  0  0
   -8.9690   -2.8840  -25.1380 H   0  0  0  0  0  0  0  0  0  0  0  0
   -7.4810   -3.2960  -25.9590 H   0  0  0  0  0  0  0  0  0  0  0  0
   -8.7810   -1.3750  -26.9620 H   0  0  0  0  0  0  0  0  0  0  0  0
   -8.6100    0.8480  -25.7720 H   0  0  0  0  0  0  0  0  0  0  0  0
   -9.6660   -0.3290  -25.0200 H   0  0  0  0  0  0  0  0  0  0  0  0
   -8.4110    0.7020  -23.2560 H   0  0  0  0  0  0  0  0  0  0  0  0
   -6.8790    0.4630  -24.0890 H   0  0  0  0  0  0  0  0  0  0  0  0
  1  2  2  0  0  0  0
  2  3  1  0  0  0  0
  2 22  1  0  0  0  0
  3  4  1  0  0  0  0
  3 20  1  0  0  0  0
  3 21  1  0  0  0  0
  4  5  2  0  0  0  0
  4 13  1  0  0  0  0
  5  6  1  0  0  0  0
  5 19  1  0  0  0  0
  6  7  2  0  0  0  0
  7  8  1  0  0  0  0
  7 18  1  0  0  0  0
  8  9  2  0  0  0  0
  8 13  1  0  0  0  0
  9 10  1  0  0  0  0
  9 17  1  0  0  0  0
 10 11  2  0  0  0  0
 10 16  1  0  0  0  0
 11 12  1  0  0  0  0
 11 15  1  0  0  0  0
 12 13  2  0  0  0  0
 12 14  1  0  0  0  0
 22 23  1  0  0  0  0
 22 31  1  0  0  0  0
 23 24  1  0  0  0  0
 23 39  1  0  0  0  0
 23 40  1  0  0  0  0
 24 25  1  0  0  0  0
 24 37  1  0  0  0  0
 24 38  1  0  0  0  0
 25 26  1  0  0  0  0
 25 30  1  0  0  0  0
 25 36  1  0  0  0  0
 26 27  1  0  0  0  0
 26 28  1  0  0  0  0
 26 29  1  0  0  0  0
 30 31  1  0  0  0  0
 30 34  1  0  0  0  0
 30 35  1  0  0  0  0
 31 32  1  0  0  0  0
 31 33  1  0  0  0  0
M  END
>  <MODEL>
      13

$$$$
best_conformers_35.pdb
 OpenBabel01292518153D

 40 42  0  0  0  0  0  0  0  0999 V2000
   -8.6880   -0.6680  -21.2420 O   0  0  0  0  0  0  0  0  0  0  0  0
   -7.8340   -1.2920  -21.8400 C   0  0  0  0  0  0  0  0  0  0  0  0
   -6.7900   -2.0940  -21.0340 C   0  0  0  0  0  0  0  0  0  0  0  0
   -6.1310   -1.2150  -19.9920 C   0  0  0  0  0  0  0  0  0  0  0  0
   -6.5120   -1.2740  -18.6750 C   0  0  0  0  0  0  0  0  0  0  0  0
   -6.0160   -0.5060  -17.6680 N   0  0  0  0  0  0  0  0  0  0  0  0
   -5.0930    0.3700  -17.9980 C   0  0  0  0  0  0  0  0  0  0  0  0
   -4.6040    0.5550  -19.3220 C   0  0  0  0  0  0  0  0  0  0  0  0
   -3.6130    1.5250  -19.6280 C   0  0  0  0  0  0  0  0  0  0  0  0
   -3.1710    1.6870  -20.9150 C   0  0  0  0  0  0  0  0  0  0  0  0
   -3.7030    0.8870  -21.9500 C   0  0  0  0  0  0  0  0  0  0  0  0
   -4.6630   -0.0600  -21.6790 C   0  0  0  0  0  0  0  0  0  0  0  0
   -5.1400   -0.2530  -20.3530 C   0  0  0  0  0  0  0  0  0  0  0  0
   -5.0600   -0.6630  -22.4930 H   0  0  0  0  0  0  0  0  0  0  0  0
   -3.3510    1.0250  -22.9690 H   0  0  0  0  0  0  0  0  0  0  0  0
   -2.4160    2.4330  -21.1510 H   0  0  0  0  0  0  0  0  0  0  0  0
   -3.2140    2.1430  -18.8260 H   0  0  0  0  0  0  0  0  0  0  0  0
   -4.6850    0.9930  -17.2000 H   0  0  0  0  0  0  0  0  0  0  0  0
   -7.2720   -1.9900  -18.3680 H   0  0  0  0  0  0  0  0  0  0  0  0
   -6.0270   -2.5560  -21.6740 H   0  0  0  0  0  0  0  0  0  0  0  0
   -7.3260   -2.9040  -20.5230 H   0  0  0  0  0  0  0  0  0  0  0  0
   -7.7490   -1.2700  -23.2300 N   0  0  0  0  0  0  0  0  0  0  0  0
   -7.2110   -2.3720  -24.0170 C   0  0  0  0  0  0  0  0  0  0  0  0
   -7.9580   -2.5240  -25.3450 C   0  0  0  0  0  0  0  0  0  0  0  0
   -8.0810   -1.2220  -26.1320 C   0  0  0  0  0  0  0  0  0  0  0  0
   -6.7920   -0.8400  -26.8470 C   0  0  0  0  0  0  0  0  0  0  0  0
   -5.7630   -0.6080  -26.0050 F   0  0  0  0  0  0  0  0  0  0  0  0
   -6.3800   -1.8070  -27.6910 F   0  0  0  0  0  0  0  0  0  0  0  0
   -6.9370    0.2800  -27.5840 F   0  0  0  0  0  0  0  0  0  0  0  0
   -8.6180   -0.1080  -25.2370 C   0  0  0  0  0  0  0  0  0  0  0  0
   -7.8700    0.0200  -23.9150 C   0  0  0  0  0  0  0  0  0  0  0  0
   -8.4110    0.7020  -23.2560 H   0  0  0  0  0  0  0  0  0  0  0  0
   -6.8790    0.4630  -24.0890 H   0  0  0  0  0  0  0  0  0  0  0  0
   -9.6660   -0.3290  -25.0200 H   0  0  0  0  0  0  0  0  0  0  0  0
   -8.6100    0.8480  -25.7720 H   0  0  0  0  0  0  0  0  0  0  0  0
   -8.7810   -1.3750  -26.9620 H   0  0  0  0  0  0  0  0  0  0  0  0
   -7.4810   -3.2960  -25.9590 H   0  0  0  0  0  0  0  0  0  0  0  0
   -8.9690   -2.8840  -25.1380 H   0  0  0  0  0  0  0  0  0  0  0  0
   -6.1360   -2.2560  -24.2090 H   0  0  0  0  0  0  0  0  0  0  0  0
   -7.3400   -3.2990  -23.4510 H   0  0  0  0  0  0  0  0  0  0  0  0
  1  2  2  0  0  0  0
  2  3  1  0  0  0  0
  2 22  1  0  0  0  0
  3  4  1  0  0  0  0
  3 20  1  0  0  0  0
  3 21  1  0  0  0  0
  4  5  2  0  0  0  0
  4 13  1  0  0  0  0
  5  6  1  0  0  0  0
  5 19  1  0  0  0  0
  6  7  2  0  0  0  0
  7  8  1  0  0  0  0
  7 18  1  0  0  0  0
  8  9  2  0  0  0  0
  8 13  1  0  0  0  0
  9 10  1  0  0  0  0
  9 17  1  0  0  0  0
 10 11  2  0  0  0  0
 10 16  1  0  0  0  0
 11 12  1  0  0  0  0
 11 15  1  0  0  0  0
 12 13  2  0  0  0  0
 12 14  1  0  0  0  0
 22 23  1  0  0  0  0
 22 31  1  0  0  0  0
 23 24  1  0  0  0  0
 23 39  1  0  0  0  0
 23 40  1  0  0  0  0
 24 25  1  0  0  0  0
 24 37  1  0  0  0  0
 24 38  1  0  0  0  0
 25 26  1  0  0  0  0
 25 30  1  0  0  0  0
 25 36  1  0  0  0  0
 26 27  1  0  0  0  0
 26 28  1  0  0  0  0
 26 29  1  0  0  0  0
 30 31  1  0  0  0  0
 30 34  1  0  0  0  0
 30 35  1  0  0  0  0
 31 32  1  0  0  0  0
 31 33  1  0  0  0  0
M  END
>  <MODEL>
      14

$$$$
best_conformers_35.pdb
 OpenBabel01292518153D

 40 42  0  0  0  0  0  0  0  0999 V2000
   -8.6880   -0.6670  -21.2420 O   0  0  0  0  0  0  0  0  0  0  0  0
   -7.8340   -1.2920  -21.8400 C   0  0  0  0  0  0  0  0  0  0  0  0
   -6.7900   -2.0940  -21.0340 C   0  0  0  0  0  0  0  0  0  0  0  0
   -6.1310   -1.2150  -19.9920 C   0  0  0  0  0  0  0  0  0  0  0  0
   -6.5120   -1.2740  -18.6750 C   0  0  0  0  0  0  0  0  0  0  0  0
   -6.0160   -0.5060  -17.6680 N   0  0  0  0  0  0  0  0  0  0  0  0
   -5.0930    0.3700  -17.9980 C   0  0  0  0  0  0  0  0  0  0  0  0
   -4.6040    0.5550  -19.3220 C   0  0  0  0  0  0  0  0  0  0  0  0
   -3.6130    1.5250  -19.6280 C   0  0  0  0  0  0  0  0  0  0  0  0
   -3.1710    1.6870  -20.9150 C   0  0  0  0  0  0  0  0  0  0  0  0
   -3.7030    0.8870  -21.9500 C   0  0  0  0  0  0  0  0  0  0  0  0
   -4.6630   -0.0600  -21.6790 C   0  0  0  0  0  0  0  0  0  0  0  0
   -5.1400   -0.2530  -20.3530 C   0  0  0  0  0  0  0  0  0  0  0  0
   -5.0600   -0.6630  -22.4930 H   0  0  0  0  0  0  0  0  0  0  0  0
   -3.3510    1.0250  -22.9690 H   0  0  0  0  0  0  0  0  0  0  0  0
   -2.4160    2.4330  -21.1510 H   0  0  0  0  0  0  0  0  0  0  0  0
   -3.2140    2.1430  -18.8260 H   0  0  0  0  0  0  0  0  0  0  0  0
   -4.6850    0.9930  -17.2000 H   0  0  0  0  0  0  0  0  0  0  0  0
   -7.2720   -1.9900  -18.3680 H   0  0  0  0  0  0  0  0  0  0  0  0
   -6.0270   -2.5560  -21.6740 H   0  0  0  0  0  0  0  0  0  0  0  0
   -7.3260   -2.9040  -20.5230 H   0  0  0  0  0  0  0  0  0  0  0  0
   -7.7490   -1.2700  -23.2300 N   0  0  0  0  0  0  0  0  0  0  0  0
   -7.8700    0.0200  -23.9150 C   0  0  0  0  0  0  0  0  0  0  0  0
   -8.6180   -0.1080  -25.2370 C   0  0  0  0  0  0  0  0  0  0  0  0
   -8.0810   -1.2220  -26.1320 C   0  0  0  0  0  0  0  0  0  0  0  0
   -6.7910   -0.8400  -26.8470 C   0  0  0  0  0  0  0  0  0  0  0  0
   -6.3800   -1.8070  -27.6910 F   0  0  0  0  0  0  0  0  0  0  0  0
   -6.9370    0.2800  -27.5840 F   0  0  0  0  0  0  0  0  0  0  0  0
   -5.7630   -0.6080  -26.0050 F   0  0  0  0  0  0  0  0  0  0  0  0
   -7.9570   -2.5240  -25.3450 C   0  0  0  0  0  0  0  0  0  0  0  0
   -7.2110   -2.3720  -24.0170 C   0  0  0  0  0  0  0  0  0  0  0  0
   -6.1360   -2.2560  -24.2090 H   0  0  0  0  0  0  0  0  0  0  0  0
   -7.3400   -3.2990  -23.4510 H   0  0  0  0  0  0  0  0  0  0  0  0
   -8.9690   -2.8840  -25.1380 H   0  0  0  0  0  0  0  0  0  0  0  0
   -7.4810   -3.2960  -25.9590 H   0  0  0  0  0  0  0  0  0  0  0  0
   -8.7810   -1.3750  -26.9620 H   0  0  0  0  0  0  0  0  0  0  0  0
   -9.6660   -0.3290  -25.0200 H   0  0  0  0  0  0  0  0  0  0  0  0
   -8.6100    0.8480  -25.7720 H   0  0  0  0  0  0  0  0  0  0  0  0
   -8.4110    0.7020  -23.2560 H   0  0  0  0  0  0  0  0  0  0  0  0
   -6.8790    0.4620  -24.0890 H   0  0  0  0  0  0  0  0  0  0  0  0
  1  2  2  0  0  0  0
  2  3  1  0  0  0  0
  2 22  1  0  0  0  0
  3  4  1  0  0  0  0
  3 20  1  0  0  0  0
  3 21  1  0  0  0  0
  4  5  2  0  0  0  0
  4 13  1  0  0  0  0
  5  6  1  0  0  0  0
  5 19  1  0  0  0  0
  6  7  2  0  0  0  0
  7  8  1  0  0  0  0
  7 18  1  0  0  0  0
  8  9  2  0  0  0  0
  8 13  1  0  0  0  0
  9 10  1  0  0  0  0
  9 17  1  0  0  0  0
 10 11  2  0  0  0  0
 10 16  1  0  0  0  0
 11 12  1  0  0  0  0
 11 15  1  0  0  0  0
 12 13  2  0  0  0  0
 12 14  1  0  0  0  0
 22 23  1  0  0  0  0
 22 31  1  0  0  0  0
 23 24  1  0  0  0  0
 23 39  1  0  0  0  0
 23 40  1  0  0  0  0
 24 25  1  0  0  0  0
 24 37  1  0  0  0  0
 24 38  1  0  0  0  0
 25 26  1  0  0  0  0
 25 30  1  0  0  0  0
 25 36  1  0  0  0  0
 26 27  1  0  0  0  0
 26 28  1  0  0  0  0
 26 29  1  0  0  0  0
 30 31  1  0  0  0  0
 30 34  1  0  0  0  0
 30 35  1  0  0  0  0
 31 32  1  0  0  0  0
 31 33  1  0  0  0  0
M  END
>  <MODEL>
      15

$$$$
best_conformers_35.pdb
 OpenBabel01292518153D

 40 42  0  0  0  0  0  0  0  0999 V2000
   -8.6640   -0.6540  -21.3030 O   0  0  0  0  0  0  0  0  0  0  0  0
   -7.8030   -1.2980  -21.8770 C   0  0  0  0  0  0  0  0  0  0  0  0
   -6.7850   -2.0970  -21.0370 C   0  0  0  0  0  0  0  0  0  0  0  0
   -6.1330   -1.2140  -19.9920 C   0  0  0  0  0  0  0  0  0  0  0  0
   -6.5120   -1.2740  -18.6750 C   0  0  0  0  0  0  0  0  0  0  0  0
   -6.0150   -0.5060  -17.6670 N   0  0  0  0  0  0  0  0  0  0  0  0
   -5.0930    0.3700  -17.9980 C   0  0  0  0  0  0  0  0  0  0  0  0
   -4.6040    0.5560  -19.3230 C   0  0  0  0  0  0  0  0  0  0  0  0
   -3.6110    1.5270  -19.6280 C   0  0  0  0  0  0  0  0  0  0  0  0
   -3.1710    1.6870  -20.9160 C   0  0  0  0  0  0  0  0  0  0  0  0
   -3.7040    0.8880  -21.9490 C   0  0  0  0  0  0  0  0  0  0  0  0
   -4.6620   -0.0600  -21.6790 C   0  0  0  0  0  0  0  0  0  0  0  0
   -5.1390   -0.2520  -20.3520 C   0  0  0  0  0  0  0  0  0  0  0  0
   -5.0590   -0.6600  -22.4920 H   0  0  0  0  0  0  0  0  0  0  0  0
   -3.3510    1.0260  -22.9680 H   0  0  0  0  0  0  0  0  0  0  0  0
   -2.4150    2.4330  -21.1510 H   0  0  0  0  0  0  0  0  0  0  0  0
   -3.2110    2.1440  -18.8270 H   0  0  0  0  0  0  0  0  0  0  0  0
   -4.6840    0.9940  -17.2020 H   0  0  0  0  0  0  0  0  0  0  0  0
   -7.2730   -1.9920  -18.3710 H   0  0  0  0  0  0  0  0  0  0  0  0
   -7.3370   -2.8940  -20.5230 H   0  0  0  0  0  0  0  0  0  0  0  0
   -6.0150   -2.5800  -21.6480 H   0  0  0  0  0  0  0  0  0  0  0  0
   -7.6790   -1.2920  -23.2550 N   0  0  0  0  0  0  0  0  0  0  0  0
   -7.1300   -2.4130  -24.0190 C   0  0  0  0  0  0  0  0  0  0  0  0
   -7.6850   -2.4590  -25.4450 C   0  0  0  0  0  0  0  0  0  0  0  0
   -7.4760   -1.1480  -26.2190 C   0  0  0  0  0  0  0  0  0  0  0  0
   -6.2640   -1.2120  -27.1320 C   0  0  0  0  0  0  0  0  0  0  0  0
   -6.0570   -0.0600  -27.7960 F   0  0  0  0  0  0  0  0  0  0  0  0
   -5.1300   -1.4680  -26.4500 F   0  0  0  0  0  0  0  0  0  0  0  0
   -6.3680   -2.1790  -28.0630 F   0  0  0  0  0  0  0  0  0  0  0  0
   -7.3920    0.0720  -25.2880 C   0  0  0  0  0  0  0  0  0  0  0  0
   -8.1930   -0.1390  -24.0060 C   0  0  0  0  0  0  0  0  0  0  0  0
   -8.1140    0.7530  -23.3800 H   0  0  0  0  0  0  0  0  0  0  0  0
   -9.2590   -0.2630  -24.2380 H   0  0  0  0  0  0  0  0  0  0  0  0
   -6.3520    0.2850  -25.0200 H   0  0  0  0  0  0  0  0  0  0  0  0
   -7.7600    0.9590  -25.8150 H   0  0  0  0  0  0  0  0  0  0  0  0
   -8.3210   -1.0140  -26.9000 H   0  0  0  0  0  0  0  0  0  0  0  0
   -8.7580   -2.6720  -25.3970 H   0  0  0  0  0  0  0  0  0  0  0  0
   -7.2460   -3.3060  -25.9860 H   0  0  0  0  0  0  0  0  0  0  0  0
   -7.3990   -3.3510  -23.5200 H   0  0  0  0  0  0  0  0  0  0  0  0
   -6.0340   -2.3680  -24.0560 H   0  0  0  0  0  0  0  0  0  0  0  0
  1  2  2  0  0  0  0
  2  3  1  0  0  0  0
  2 22  1  0  0  0  0
  3  4  1  0  0  0  0
  3 20  1  0  0  0  0
  3 21  1  0  0  0  0
  4  5  2  0  0  0  0
  4 13  1  0  0  0  0
  5  6  1  0  0  0  0
  5 19  1  0  0  0  0
  6  7  2  0  0  0  0
  7  8  1  0  0  0  0
  7 18  1  0  0  0  0
  8  9  2  0  0  0  0
  8 13  1  0  0  0  0
  9 10  1  0  0  0  0
  9 17  1  0  0  0  0
 10 11  2  0  0  0  0
 10 16  1  0  0  0  0
 11 12  1  0  0  0  0
 11 15  1  0  0  0  0
 12 13  2  0  0  0  0
 12 14  1  0  0  0  0
 22 23  1  0  0  0  0
 22 31  1  0  0  0  0
 23 24  1  0  0  0  0
 23 39  1  0  0  0  0
 23 40  1  0  0  0  0
 24 25  1  0  0  0  0
 24 37  1  0  0  0  0
 24 38  1  0  0  0  0
 25 26  1  0  0  0  0
 25 30  1  0  0  0  0
 25 36  1  0  0  0  0
 26 27  1  0  0  0  0
 26 28  1  0  0  0  0
 26 29  1  0  0  0  0
 30 31  1  0  0  0  0
 30 34  1  0  0  0  0
 30 35  1  0  0  0  0
 31 32  1  0  0  0  0
 31 33  1  0  0  0  0
M  END
>  <MODEL>
      16

$$$$
best_conformers_35.pdb
 OpenBabel01292518153D

 40 42  0  0  0  0  0  0  0  0999 V2000
   -8.6640   -0.6540  -21.3040 O   0  0  0  0  0  0  0  0  0  0  0  0
   -7.8030   -1.2980  -21.8770 C   0  0  0  0  0  0  0  0  0  0  0  0
   -6.7850   -2.0970  -21.0370 C   0  0  0  0  0  0  0  0  0  0  0  0
   -6.1330   -1.2140  -19.9920 C   0  0  0  0  0  0  0  0  0  0  0  0
   -6.5120   -1.2740  -18.6750 C   0  0  0  0  0  0  0  0  0  0  0  0
   -6.0150   -0.5060  -17.6670 N   0  0  0  0  0  0  0  0  0  0  0  0
   -5.0930    0.3700  -17.9980 C   0  0  0  0  0  0  0  0  0  0  0  0
   -4.6040    0.5560  -19.3230 C   0  0  0  0  0  0  0  0  0  0  0  0
   -3.6110    1.5270  -19.6280 C   0  0  0  0  0  0  0  0  0  0  0  0
   -3.1710    1.6870  -20.9160 C   0  0  0  0  0  0  0  0  0  0  0  0
   -3.7040    0.8880  -21.9490 C   0  0  0  0  0  0  0  0  0  0  0  0
   -4.6620   -0.0600  -21.6790 C   0  0  0  0  0  0  0  0  0  0  0  0
   -5.1390   -0.2520  -20.3520 C   0  0  0  0  0  0  0  0  0  0  0  0
   -5.0590   -0.6600  -22.4920 H   0  0  0  0  0  0  0  0  0  0  0  0
   -3.3510    1.0260  -22.9680 H   0  0  0  0  0  0  0  0  0  0  0  0
   -2.4150    2.4330  -21.1510 H   0  0  0  0  0  0  0  0  0  0  0  0
   -3.2110    2.1440  -18.8270 H   0  0  0  0  0  0  0  0  0  0  0  0
   -4.6840    0.9940  -17.2020 H   0  0  0  0  0  0  0  0  0  0  0  0
   -7.2730   -1.9920  -18.3710 H   0  0  0  0  0  0  0  0  0  0  0  0
   -6.0150   -2.5800  -21.6480 H   0  0  0  0  0  0  0  0  0  0  0  0
   -7.3370   -2.8940  -20.5230 H   0  0  0  0  0  0  0  0  0  0  0  0
   -7.6790   -1.2920  -23.2550 N   0  0  0  0  0  0  0  0  0  0  0  0
   -8.1930   -0.1390  -24.0060 C   0  0  0  0  0  0  0  0  0  0  0  0
   -7.3920    0.0710  -25.2880 C   0  0  0  0  0  0  0  0  0  0  0  0
   -7.4760   -1.1480  -26.2190 C   0  0  0  0  0  0  0  0  0  0  0  0
   -6.2640   -1.2120  -27.1320 C   0  0  0  0  0  0  0  0  0  0  0  0
   -6.0570   -0.0600  -27.7960 F   0  0  0  0  0  0  0  0  0  0  0  0
   -6.3690   -2.1790  -28.0630 F   0  0  0  0  0  0  0  0  0  0  0  0
   -5.1300   -1.4690  -26.4500 F   0  0  0  0  0  0  0  0  0  0  0  0
   -7.6850   -2.4590  -25.4450 C   0  0  0  0  0  0  0  0  0  0  0  0
   -7.1300   -2.4130  -24.0190 C   0  0  0  0  0  0  0  0  0  0  0  0
   -7.3990   -3.3510  -23.5200 H   0  0  0  0  0  0  0  0  0  0  0  0
   -6.0340   -2.3680  -24.0560 H   0  0  0  0  0  0  0  0  0  0  0  0
   -8.7580   -2.6720  -25.3970 H   0  0  0  0  0  0  0  0  0  0  0  0
   -7.2460   -3.3060  -25.9860 H   0  0  0  0  0  0  0  0  0  0  0  0
   -8.3210   -1.0140  -26.9000 H   0  0  0  0  0  0  0  0  0  0  0  0
   -6.3520    0.2850  -25.0200 H   0  0  0  0  0  0  0  0  0  0  0  0
   -7.7600    0.9590  -25.8150 H   0  0  0  0  0  0  0  0  0  0  0  0
   -9.2590   -0.2620  -24.2380 H   0  0  0  0  0  0  0  0  0  0  0  0
   -8.1130    0.7530  -23.3800 H   0  0  0  0  0  0  0  0  0  0  0  0
  1  2  2  0  0  0  0
  2  3  1  0  0  0  0
  2 22  1  0  0  0  0
  3  4  1  0  0  0  0
  3 20  1  0  0  0  0
  3 21  1  0  0  0  0
  4  5  2  0  0  0  0
  4 13  1  0  0  0  0
  5  6  1  0  0  0  0
  5 19  1  0  0  0  0
  6  7  2  0  0  0  0
  7  8  1  0  0  0  0
  7 18  1  0  0  0  0
  8  9  2  0  0  0  0
  8 13  1  0  0  0  0
  9 10  1  0  0  0  0
  9 17  1  0  0  0  0
 10 11  2  0  0  0  0
 10 16  1  0  0  0  0
 11 12  1  0  0  0  0
 11 15  1  0  0  0  0
 12 13  2  0  0  0  0
 12 14  1  0  0  0  0
 22 23  1  0  0  0  0
 22 31  1  0  0  0  0
 23 24  1  0  0  0  0
 23 39  1  0  0  0  0
 23 40  1  0  0  0  0
 24 25  1  0  0  0  0
 24 37  1  0  0  0  0
 24 38  1  0  0  0  0
 25 26  1  0  0  0  0
 25 30  1  0  0  0  0
 25 36  1  0  0  0  0
 26 27  1  0  0  0  0
 26 28  1  0  0  0  0
 26 29  1  0  0  0  0
 30 31  1  0  0  0  0
 30 34  1  0  0  0  0
 30 35  1  0  0  0  0
 31 32  1  0  0  0  0
 31 33  1  0  0  0  0
M  END
>  <MODEL>
      17

$$$$
best_conformers_35.pdb
 OpenBabel01292518153D

 40 42  0  0  0  0  0  0  0  0999 V2000
   -8.6640   -0.6540  -21.3040 O   0  0  0  0  0  0  0  0  0  0  0  0
   -7.8030   -1.2980  -21.8770 C   0  0  0  0  0  0  0  0  0  0  0  0
   -6.7850   -2.0970  -21.0370 C   0  0  0  0  0  0  0  0  0  0  0  0
   -6.1330   -1.2140  -19.9920 C   0  0  0  0  0  0  0  0  0  0  0  0
   -6.5120   -1.2740  -18.6750 C   0  0  0  0  0  0  0  0  0  0  0  0
   -6.0150   -0.5060  -17.6670 N   0  0  0  0  0  0  0  0  0  0  0  0
   -5.0930    0.3700  -17.9980 C   0  0  0  0  0  0  0  0  0  0  0  0
   -4.6040    0.5560  -19.3230 C   0  0  0  0  0  0  0  0  0  0  0  0
   -3.6110    1.5270  -19.6280 C   0  0  0  0  0  0  0  0  0  0  0  0
   -3.1710    1.6870  -20.9160 C   0  0  0  0  0  0  0  0  0  0  0  0
   -3.7040    0.8880  -21.9490 C   0  0  0  0  0  0  0  0  0  0  0  0
   -4.6620   -0.0600  -21.6790 C   0  0  0  0  0  0  0  0  0  0  0  0
   -5.1390   -0.2520  -20.3520 C   0  0  0  0  0  0  0  0  0  0  0  0
   -5.0590   -0.6600  -22.4920 H   0  0  0  0  0  0  0  0  0  0  0  0
   -3.3510    1.0260  -22.9680 H   0  0  0  0  0  0  0  0  0  0  0  0
   -2.4150    2.4330  -21.1510 H   0  0  0  0  0  0  0  0  0  0  0  0
   -3.2110    2.1440  -18.8270 H   0  0  0  0  0  0  0  0  0  0  0  0
   -4.6840    0.9940  -17.2020 H   0  0  0  0  0  0  0  0  0  0  0  0
   -7.2730   -1.9920  -18.3710 H   0  0  0  0  0  0  0  0  0  0  0  0
   -7.3370   -2.8940  -20.5230 H   0  0  0  0  0  0  0  0  0  0  0  0
   -6.0150   -2.5800  -21.6480 H   0  0  0  0  0  0  0  0  0  0  0  0
   -7.6790   -1.2920  -23.2550 N   0  0  0  0  0  0  0  0  0  0  0  0
   -7.1300   -2.4130  -24.0190 C   0  0  0  0  0  0  0  0  0  0  0  0
   -7.6850   -2.4590  -25.4450 C   0  0  0  0  0  0  0  0  0  0  0  0
   -7.4760   -1.1490  -26.2190 C   0  0  0  0  0  0  0  0  0  0  0  0
   -6.2640   -1.2120  -27.1320 C   0  0  0  0  0  0  0  0  0  0  0  0
   -6.0570   -0.0600  -27.7960 F   0  0  0  0  0  0  0  0  0  0  0  0
   -6.3680   -2.1800  -28.0630 F   0  0  0  0  0  0  0  0  0  0  0  0
   -5.1300   -1.4690  -26.4500 F   0  0  0  0  0  0  0  0  0  0  0  0
   -7.3920    0.0710  -25.2880 C   0  0  0  0  0  0  0  0  0  0  0  0
   -8.1930   -0.1400  -24.0060 C   0  0  0  0  0  0  0  0  0  0  0  0
   -9.2590   -0.2630  -24.2380 H   0  0  0  0  0  0  0  0  0  0  0  0
   -8.1140    0.7530  -23.3800 H   0  0  0  0  0  0  0  0  0  0  0  0
   -7.7600    0.9590  -25.8150 H   0  0  0  0  0  0  0  0  0  0  0  0
   -6.3520    0.2850  -25.0200 H   0  0  0  0  0  0  0  0  0  0  0  0
   -8.3210   -1.0140  -26.9000 H   0  0  0  0  0  0  0  0  0  0  0  0
   -7.2460   -3.3060  -25.9860 H   0  0  0  0  0  0  0  0  0  0  0  0
   -8.7580   -2.6720  -25.3970 H   0  0  0  0  0  0  0  0  0  0  0  0
   -6.0340   -2.3680  -24.0560 H   0  0  0  0  0  0  0  0  0  0  0  0
   -7.3990   -3.3520  -23.5200 H   0  0  0  0  0  0  0  0  0  0  0  0
  1  2  2  0  0  0  0
  2  3  1  0  0  0  0
  2 22  1  0  0  0  0
  3  4  1  0  0  0  0
  3 20  1  0  0  0  0
  3 21  1  0  0  0  0
  4  5  2  0  0  0  0
  4 13  1  0  0  0  0
  5  6  1  0  0  0  0
  5 19  1  0  0  0  0
  6  7  2  0  0  0  0
  7  8  1  0  0  0  0
  7 18  1  0  0  0  0
  8  9  2  0  0  0  0
  8 13  1  0  0  0  0
  9 10  1  0  0  0  0
  9 17  1  0  0  0  0
 10 11  2  0  0  0  0
 10 16  1  0  0  0  0
 11 12  1  0  0  0  0
 11 15  1  0  0  0  0
 12 13  2  0  0  0  0
 12 14  1  0  0  0  0
 22 23  1  0  0  0  0
 22 31  1  0  0  0  0
 23 24  1  0  0  0  0
 23 39  1  0  0  0  0
 23 40  1  0  0  0  0
 24 25  1  0  0  0  0
 24 37  1  0  0  0  0
 24 38  1  0  0  0  0
 25 26  1  0  0  0  0
 25 30  1  0  0  0  0
 25 36  1  0  0  0  0
 26 27  1  0  0  0  0
 26 28  1  0  0  0  0
 26 29  1  0  0  0  0
 30 31  1  0  0  0  0
 30 34  1  0  0  0  0
 30 35  1  0  0  0  0
 31 32  1  0  0  0  0
 31 33  1  0  0  0  0
M  END
>  <MODEL>
      18

$$$$
best_conformers_35.pdb
 OpenBabel01292518153D

 40 42  0  0  0  0  0  0  0  0999 V2000
   -8.6640   -0.6540  -21.3040 O   0  0  0  0  0  0  0  0  0  0  0  0
   -7.8030   -1.2980  -21.8770 C   0  0  0  0  0  0  0  0  0  0  0  0
   -6.7850   -2.0970  -21.0370 C   0  0  0  0  0  0  0  0  0  0  0  0
   -6.1330   -1.2140  -19.9920 C   0  0  0  0  0  0  0  0  0  0  0  0
   -6.5120   -1.2740  -18.6750 C   0  0  0  0  0  0  0  0  0  0  0  0
   -6.0150   -0.5060  -17.6670 N   0  0  0  0  0  0  0  0  0  0  0  0
   -5.0930    0.3700  -17.9980 C   0  0  0  0  0  0  0  0  0  0  0  0
   -4.6040    0.5560  -19.3230 C   0  0  0  0  0  0  0  0  0  0  0  0
   -3.6110    1.5270  -19.6280 C   0  0  0  0  0  0  0  0  0  0  0  0
   -3.1710    1.6870  -20.9160 C   0  0  0  0  0  0  0  0  0  0  0  0
   -3.7040    0.8880  -21.9490 C   0  0  0  0  0  0  0  0  0  0  0  0
   -4.6620   -0.0600  -21.6790 C   0  0  0  0  0  0  0  0  0  0  0  0
   -5.1390   -0.2520  -20.3520 C   0  0  0  0  0  0  0  0  0  0  0  0
   -5.0590   -0.6600  -22.4920 H   0  0  0  0  0  0  0  0  0  0  0  0
   -3.3510    1.0260  -22.9680 H   0  0  0  0  0  0  0  0  0  0  0  0
   -2.4150    2.4330  -21.1510 H   0  0  0  0  0  0  0  0  0  0  0  0
   -3.2110    2.1440  -18.8270 H   0  0  0  0  0  0  0  0  0  0  0  0
   -4.6840    0.9940  -17.2020 H   0  0  0  0  0  0  0  0  0  0  0  0
   -7.2730   -1.9920  -18.3710 H   0  0  0  0  0  0  0  0  0  0  0  0
   -7.3370   -2.8940  -20.5230 H   0  0  0  0  0  0  0  0  0  0  0  0
   -6.0150   -2.5800  -21.6480 H   0  0  0  0  0  0  0  0  0  0  0  0
   -7.6790   -1.2920  -23.2550 N   0  0  0  0  0  0  0  0  0  0  0  0
   -8.1930   -0.1390  -24.0060 C   0  0  0  0  0  0  0  0  0  0  0  0
   -7.3920    0.0720  -25.2880 C   0  0  0  0  0  0  0  0  0  0  0  0
   -7.4760   -1.1480  -26.2190 C   0  0  0  0  0  0  0  0  0  0  0  0
   -6.2640   -1.2120  -27.1320 C   0  0  0  0  0  0  0  0  0  0  0  0
   -6.3680   -2.1790  -28.0630 F   0  0  0  0  0  0  0  0  0  0  0  0
   -5.1300   -1.4680  -26.4500 F   0  0  0  0  0  0  0  0  0  0  0  0
   -6.0560   -0.0600  -27.7960 F   0  0  0  0  0  0  0  0  0  0  0  0
   -7.6850   -2.4590  -25.4450 C   0  0  0  0  0  0  0  0  0  0  0  0
   -7.1300   -2.4130  -24.0190 C   0  0  0  0  0  0  0  0  0  0  0  0
   -7.3990   -3.3510  -23.5200 H   0  0  0  0  0  0  0  0  0  0  0  0
   -6.0340   -2.3680  -24.0560 H   0  0  0  0  0  0  0  0  0  0  0  0
   -7.2460   -3.3060  -25.9860 H   0  0  0  0  0  0  0  0  0  0  0  0
   -8.7580   -2.6720  -25.3970 H   0  0  0  0  0  0  0  0  0  0  0  0
   -8.3210   -1.0140  -26.9000 H   0  0  0  0  0  0  0  0  0  0  0  0
   -7.7600    0.9590  -25.8150 H   0  0  0  0  0  0  0  0  0  0  0  0
   -6.3510    0.2850  -25.0200 H   0  0  0  0  0  0  0  0  0  0  0  0
   -8.1130    0.7530  -23.3800 H   0  0  0  0  0  0  0  0  0  0  0  0
   -9.2590   -0.2620  -24.2380 H   0  0  0  0  0  0  0  0  0  0  0  0
  1  2  2  0  0  0  0
  2  3  1  0  0  0  0
  2 22  1  0  0  0  0
  3  4  1  0  0  0  0
  3 20  1  0  0  0  0
  3 21  1  0  0  0  0
  4  5  2  0  0  0  0
  4 13  1  0  0  0  0
  5  6  1  0  0  0  0
  5 19  1  0  0  0  0
  6  7  2  0  0  0  0
  7  8  1  0  0  0  0
  7 18  1  0  0  0  0
  8  9  2  0  0  0  0
  8 13  1  0  0  0  0
  9 10  1  0  0  0  0
  9 17  1  0  0  0  0
 10 11  2  0  0  0  0
 10 16  1  0  0  0  0
 11 12  1  0  0  0  0
 11 15  1  0  0  0  0
 12 13  2  0  0  0  0
 12 14  1  0  0  0  0
 22 23  1  0  0  0  0
 22 31  1  0  0  0  0
 23 24  1  0  0  0  0
 23 39  1  0  0  0  0
 23 40  1  0  0  0  0
 24 25  1  0  0  0  0
 24 37  1  0  0  0  0
 24 38  1  0  0  0  0
 25 26  1  0  0  0  0
 25 30  1  0  0  0  0
 25 36  1  0  0  0  0
 26 27  1  0  0  0  0
 26 28  1  0  0  0  0
 26 29  1  0  0  0  0
 30 31  1  0  0  0  0
 30 34  1  0  0  0  0
 30 35  1  0  0  0  0
 31 32  1  0  0  0  0
 31 33  1  0  0  0  0
M  END
>  <MODEL>
      19

$$$$
best_conformers_35.pdb
 OpenBabel01292518153D

 40 42  0  0  0  0  0  0  0  0999 V2000
   -8.6640   -0.6540  -21.3040 O   0  0  0  0  0  0  0  0  0  0  0  0
   -7.8030   -1.2980  -21.8770 C   0  0  0  0  0  0  0  0  0  0  0  0
   -6.7850   -2.0970  -21.0370 C   0  0  0  0  0  0  0  0  0  0  0  0
   -6.1330   -1.2140  -19.9920 C   0  0  0  0  0  0  0  0  0  0  0  0
   -6.5120   -1.2740  -18.6750 C   0  0  0  0  0  0  0  0  0  0  0  0
   -6.0150   -0.5060  -17.6670 N   0  0  0  0  0  0  0  0  0  0  0  0
   -5.0930    0.3700  -17.9980 C   0  0  0  0  0  0  0  0  0  0  0  0
   -4.6040    0.5560  -19.3230 C   0  0  0  0  0  0  0  0  0  0  0  0
   -3.6110    1.5270  -19.6280 C   0  0  0  0  0  0  0  0  0  0  0  0
   -3.1710    1.6870  -20.9160 C   0  0  0  0  0  0  0  0  0  0  0  0
   -3.7030    0.8880  -21.9490 C   0  0  0  0  0  0  0  0  0  0  0  0
   -4.6620   -0.0600  -21.6790 C   0  0  0  0  0  0  0  0  0  0  0  0
   -5.1390   -0.2520  -20.3520 C   0  0  0  0  0  0  0  0  0  0  0  0
   -5.0590   -0.6600  -22.4920 H   0  0  0  0  0  0  0  0  0  0  0  0
   -3.3510    1.0260  -22.9680 H   0  0  0  0  0  0  0  0  0  0  0  0
   -2.4150    2.4330  -21.1510 H   0  0  0  0  0  0  0  0  0  0  0  0
   -3.2110    2.1440  -18.8270 H   0  0  0  0  0  0  0  0  0  0  0  0
   -4.6840    0.9940  -17.2020 H   0  0  0  0  0  0  0  0  0  0  0  0
   -7.2730   -1.9920  -18.3710 H   0  0  0  0  0  0  0  0  0  0  0  0
   -6.0150   -2.5800  -21.6480 H   0  0  0  0  0  0  0  0  0  0  0  0
   -7.3370   -2.8940  -20.5230 H   0  0  0  0  0  0  0  0  0  0  0  0
   -7.6790   -1.2920  -23.2550 N   0  0  0  0  0  0  0  0  0  0  0  0
   -7.1300   -2.4130  -24.0190 C   0  0  0  0  0  0  0  0  0  0  0  0
   -7.6850   -2.4590  -25.4450 C   0  0  0  0  0  0  0  0  0  0  0  0
   -7.4760   -1.1490  -26.2190 C   0  0  0  0  0  0  0  0  0  0  0  0
   -6.2640   -1.2120  -27.1320 C   0  0  0  0  0  0  0  0  0  0  0  0
   -6.3680   -2.1800  -28.0630 F   0  0  0  0  0  0  0  0  0  0  0  0
   -6.0570   -0.0600  -27.7960 F   0  0  0  0  0  0  0  0  0  0  0  0
   -5.1300   -1.4690  -26.4500 F   0  0  0  0  0  0  0  0  0  0  0  0
   -7.3920    0.0710  -25.2880 C   0  0  0  0  0  0  0  0  0  0  0  0
   -8.1930   -0.1400  -24.0060 C   0  0  0  0  0  0  0  0  0  0  0  0
   -8.1130    0.7530  -23.3800 H   0  0  0  0  0  0  0  0  0  0  0  0
   -9.2590   -0.2630  -24.2380 H   0  0  0  0  0  0  0  0  0  0  0  0
   -7.7600    0.9590  -25.8150 H   0  0  0  0  0  0  0  0  0  0  0  0
   -6.3520    0.2850  -25.0200 H   0  0  0  0  0  0  0  0  0  0  0  0
   -8.3210   -1.0140  -26.9000 H   0  0  0  0  0  0  0  0  0  0  0  0
   -8.7580   -2.6720  -25.3970 H   0  0  0  0  0  0  0  0  0  0  0  0
   -7.2460   -3.3060  -25.9860 H   0  0  0  0  0  0  0  0  0  0  0  0
   -7.3990   -3.3510  -23.5200 H   0  0  0  0  0  0  0  0  0  0  0  0
   -6.0340   -2.3680  -24.0560 H   0  0  0  0  0  0  0  0  0  0  0  0
  1  2  2  0  0  0  0
  2  3  1  0  0  0  0
  2 22  1  0  0  0  0
  3  4  1  0  0  0  0
  3 20  1  0  0  0  0
  3 21  1  0  0  0  0
  4  5  2  0  0  0  0
  4 13  1  0  0  0  0
  5  6  1  0  0  0  0
  5 19  1  0  0  0  0
  6  7  2  0  0  0  0
  7  8  1  0  0  0  0
  7 18  1  0  0  0  0
  8  9  2  0  0  0  0
  8 13  1  0  0  0  0
  9 10  1  0  0  0  0
  9 17  1  0  0  0  0
 10 11  2  0  0  0  0
 10 16  1  0  0  0  0
 11 12  1  0  0  0  0
 11 15  1  0  0  0  0
 12 13  2  0  0  0  0
 12 14  1  0  0  0  0
 22 23  1  0  0  0  0
 22 31  1  0  0  0  0
 23 24  1  0  0  0  0
 23 39  1  0  0  0  0
 23 40  1  0  0  0  0
 24 25  1  0  0  0  0
 24 37  1  0  0  0  0
 24 38  1  0  0  0  0
 25 26  1  0  0  0  0
 25 30  1  0  0  0  0
 25 36  1  0  0  0  0
 26 27  1  0  0  0  0
 26 28  1  0  0  0  0
 26 29  1  0  0  0  0
 30 31  1  0  0  0  0
 30 34  1  0  0  0  0
 30 35  1  0  0  0  0
 31 32  1  0  0  0  0
 31 33  1  0  0  0  0
M  END
>  <MODEL>
      20

$$$$
best_conformers_35.pdb
 OpenBabel01292518153D

 40 42  0  0  0  0  0  0  0  0999 V2000
   -8.6650   -0.6530  -21.3030 O   0  0  0  0  0  0  0  0  0  0  0  0
   -7.8030   -1.2970  -21.8770 C   0  0  0  0  0  0  0  0  0  0  0  0
   -6.7860   -2.0970  -21.0370 C   0  0  0  0  0  0  0  0  0  0  0  0
   -6.1330   -1.2140  -19.9920 C   0  0  0  0  0  0  0  0  0  0  0  0
   -6.5120   -1.2740  -18.6750 C   0  0  0  0  0  0  0  0  0  0  0  0
   -6.0150   -0.5060  -17.6670 N   0  0  0  0  0  0  0  0  0  0  0  0
   -5.0930    0.3700  -17.9980 C   0  0  0  0  0  0  0  0  0  0  0  0
   -4.6040    0.5560  -19.3230 C   0  0  0  0  0  0  0  0  0  0  0  0
   -3.6110    1.5270  -19.6280 C   0  0  0  0  0  0  0  0  0  0  0  0
   -3.1710    1.6870  -20.9160 C   0  0  0  0  0  0  0  0  0  0  0  0
   -3.7030    0.8880  -21.9490 C   0  0  0  0  0  0  0  0  0  0  0  0
   -4.6620   -0.0600  -21.6790 C   0  0  0  0  0  0  0  0  0  0  0  0
   -5.1390   -0.2520  -20.3520 C   0  0  0  0  0  0  0  0  0  0  0  0
   -5.0590   -0.6600  -22.4920 H   0  0  0  0  0  0  0  0  0  0  0  0
   -3.3500    1.0260  -22.9680 H   0  0  0  0  0  0  0  0  0  0  0  0
   -2.4150    2.4330  -21.1510 H   0  0  0  0  0  0  0  0  0  0  0  0
   -3.2100    2.1440  -18.8270 H   0  0  0  0  0  0  0  0  0  0  0  0
   -4.6840    0.9940  -17.2020 H   0  0  0  0  0  0  0  0  0  0  0  0
   -7.2730   -1.9920  -18.3710 H   0  0  0  0  0  0  0  0  0  0  0  0
   -6.0160   -2.5800  -21.6480 H   0  0  0  0  0  0  0  0  0  0  0  0
   -7.3380   -2.8930  -20.5230 H   0  0  0  0  0  0  0  0  0  0  0  0
   -7.6790   -1.2910  -23.2550 N   0  0  0  0  0  0  0  0  0  0  0  0
   -8.1930   -0.1380  -24.0050 C   0  0  0  0  0  0  0  0  0  0  0  0
   -7.3910    0.0750  -25.2860 C   0  0  0  0  0  0  0  0  0  0  0  0
   -7.4720   -1.1440  -26.2190 C   0  0  0  0  0  0  0  0  0  0  0  0
   -6.2580   -1.2080  -27.1280 C   0  0  0  0  0  0  0  0  0  0  0  0
   -5.1260   -1.4650  -26.4430 F   0  0  0  0  0  0  0  0  0  0  0  0
   -6.3610   -2.1740  -28.0600 F   0  0  0  0  0  0  0  0  0  0  0  0
   -6.0490   -0.0540  -27.7910 F   0  0  0  0  0  0  0  0  0  0  0  0
   -7.6840   -2.4560  -25.4460 C   0  0  0  0  0  0  0  0  0  0  0  0
   -7.1310   -2.4110  -24.0190 C   0  0  0  0  0  0  0  0  0  0  0  0
   -6.0340   -2.3680  -24.0550 H   0  0  0  0  0  0  0  0  0  0  0  0
   -7.4020   -3.3500  -23.5220 H   0  0  0  0  0  0  0  0  0  0  0  0
   -7.2450   -3.3020  -25.9870 H   0  0  0  0  0  0  0  0  0  0  0  0
   -8.7570   -2.6670  -25.4000 H   0  0  0  0  0  0  0  0  0  0  0  0
   -8.3160   -1.0090  -26.9010 H   0  0  0  0  0  0  0  0  0  0  0  0
   -7.7580    0.9630  -25.8130 H   0  0  0  0  0  0  0  0  0  0  0  0
   -6.3500    0.2890  -25.0160 H   0  0  0  0  0  0  0  0  0  0  0  0
   -9.2590   -0.2610  -24.2380 H   0  0  0  0  0  0  0  0  0  0  0  0
   -8.1150    0.7540  -23.3780 H   0  0  0  0  0  0  0  0  0  0  0  0
  1  2  2  0  0  0  0
  2  3  1  0  0  0  0
  2 22  1  0  0  0  0
  3  4  1  0  0  0  0
  3 20  1  0  0  0  0
  3 21  1  0  0  0  0
  4  5  2  0  0  0  0
  4 13  1  0  0  0  0
  5  6  1  0  0  0  0
  5 19  1  0  0  0  0
  6  7  2  0  0  0  0
  7  8  1  0  0  0  0
  7 18  1  0  0  0  0
  8  9  2  0  0  0  0
  8 13  1  0  0  0  0
  9 10  1  0  0  0  0
  9 17  1  0  0  0  0
 10 11  2  0  0  0  0
 10 16  1  0  0  0  0
 11 12  1  0  0  0  0
 11 15  1  0  0  0  0
 12 13  2  0  0  0  0
 12 14  1  0  0  0  0
 22 23  1  0  0  0  0
 22 31  1  0  0  0  0
 23 24  1  0  0  0  0
 23 39  1  0  0  0  0
 23 40  1  0  0  0  0
 24 25  1  0  0  0  0
 24 37  1  0  0  0  0
 24 38  1  0  0  0  0
 25 26  1  0  0  0  0
 25 30  1  0  0  0  0
 25 36  1  0  0  0  0
 26 27  1  0  0  0  0
 26 28  1  0  0  0  0
 26 29  1  0  0  0  0
 30 31  1  0  0  0  0
 30 34  1  0  0  0  0
 30 35  1  0  0  0  0
 31 32  1  0  0  0  0
 31 33  1  0  0  0  0
M  END
>  <MODEL>
      21

$$$$
best_conformers_35.pdb
 OpenBabel01292518153D

 40 42  0  0  0  0  0  0  0  0999 V2000
   -8.6640   -0.6540  -21.3040 O   0  0  0  0  0  0  0  0  0  0  0  0
   -7.8030   -1.2980  -21.8770 C   0  0  0  0  0  0  0  0  0  0  0  0
   -6.7850   -2.0970  -21.0370 C   0  0  0  0  0  0  0  0  0  0  0  0
   -6.1330   -1.2140  -19.9920 C   0  0  0  0  0  0  0  0  0  0  0  0
   -6.5120   -1.2740  -18.6750 C   0  0  0  0  0  0  0  0  0  0  0  0
   -6.0150   -0.5060  -17.6670 N   0  0  0  0  0  0  0  0  0  0  0  0
   -5.0930    0.3700  -17.9980 C   0  0  0  0  0  0  0  0  0  0  0  0
   -4.6040    0.5560  -19.3230 C   0  0  0  0  0  0  0  0  0  0  0  0
   -3.6110    1.5270  -19.6280 C   0  0  0  0  0  0  0  0  0  0  0  0
   -3.1710    1.6870  -20.9160 C   0  0  0  0  0  0  0  0  0  0  0  0
   -3.7040    0.8880  -21.9490 C   0  0  0  0  0  0  0  0  0  0  0  0
   -4.6620   -0.0600  -21.6790 C   0  0  0  0  0  0  0  0  0  0  0  0
   -5.1390   -0.2520  -20.3520 C   0  0  0  0  0  0  0  0  0  0  0  0
   -5.0590   -0.6600  -22.4920 H   0  0  0  0  0  0  0  0  0  0  0  0
   -3.3510    1.0260  -22.9680 H   0  0  0  0  0  0  0  0  0  0  0  0
   -2.4150    2.4330  -21.1510 H   0  0  0  0  0  0  0  0  0  0  0  0
   -3.2110    2.1440  -18.8270 H   0  0  0  0  0  0  0  0  0  0  0  0
   -4.6840    0.9940  -17.2020 H   0  0  0  0  0  0  0  0  0  0  0  0
   -7.2730   -1.9920  -18.3710 H   0  0  0  0  0  0  0  0  0  0  0  0
   -7.3370   -2.8940  -20.5230 H   0  0  0  0  0  0  0  0  0  0  0  0
   -6.0150   -2.5800  -21.6480 H   0  0  0  0  0  0  0  0  0  0  0  0
   -7.6790   -1.2920  -23.2550 N   0  0  0  0  0  0  0  0  0  0  0  0
   -8.1930   -0.1400  -24.0060 C   0  0  0  0  0  0  0  0  0  0  0  0
   -7.3920    0.0710  -25.2880 C   0  0  0  0  0  0  0  0  0  0  0  0
   -7.4760   -1.1490  -26.2190 C   0  0  0  0  0  0  0  0  0  0  0  0
   -6.2640   -1.2120  -27.1320 C   0  0  0  0  0  0  0  0  0  0  0  0
   -5.1300   -1.4690  -26.4500 F   0  0  0  0  0  0  0  0  0  0  0  0
   -6.0570   -0.0600  -27.7960 F   0  0  0  0  0  0  0  0  0  0  0  0
   -6.3680   -2.1800  -28.0630 F   0  0  0  0  0  0  0  0  0  0  0  0
   -7.6850   -2.4590  -25.4450 C   0  0  0  0  0  0  0  0  0  0  0  0
   -7.1300   -2.4130  -24.0190 C   0  0  0  0  0  0  0  0  0  0  0  0
   -6.0340   -2.3680  -24.0560 H   0  0  0  0  0  0  0  0  0  0  0  0
   -7.3990   -3.3510  -23.5200 H   0  0  0  0  0  0  0  0  0  0  0  0
   -7.2460   -3.3060  -25.9860 H   0  0  0  0  0  0  0  0  0  0  0  0
   -8.7580   -2.6720  -25.3970 H   0  0  0  0  0  0  0  0  0  0  0  0
   -8.3210   -1.0140  -26.9000 H   0  0  0  0  0  0  0  0  0  0  0  0
   -7.7600    0.9590  -25.8150 H   0  0  0  0  0  0  0  0  0  0  0  0
   -6.3520    0.2850  -25.0200 H   0  0  0  0  0  0  0  0  0  0  0  0
   -8.1130    0.7530  -23.3800 H   0  0  0  0  0  0  0  0  0  0  0  0
   -9.2590   -0.2630  -24.2380 H   0  0  0  0  0  0  0  0  0  0  0  0
  1  2  2  0  0  0  0
  2  3  1  0  0  0  0
  2 22  1  0  0  0  0
  3  4  1  0  0  0  0
  3 20  1  0  0  0  0
  3 21  1  0  0  0  0
  4  5  2  0  0  0  0
  4 13  1  0  0  0  0
  5  6  1  0  0  0  0
  5 19  1  0  0  0  0
  6  7  2  0  0  0  0
  7  8  1  0  0  0  0
  7 18  1  0  0  0  0
  8  9  2  0  0  0  0
  8 13  1  0  0  0  0
  9 10  1  0  0  0  0
  9 17  1  0  0  0  0
 10 11  2  0  0  0  0
 10 16  1  0  0  0  0
 11 12  1  0  0  0  0
 11 15  1  0  0  0  0
 12 13  2  0  0  0  0
 12 14  1  0  0  0  0
 22 23  1  0  0  0  0
 22 31  1  0  0  0  0
 23 24  1  0  0  0  0
 23 39  1  0  0  0  0
 23 40  1  0  0  0  0
 24 25  1  0  0  0  0
 24 37  1  0  0  0  0
 24 38  1  0  0  0  0
 25 26  1  0  0  0  0
 25 30  1  0  0  0  0
 25 36  1  0  0  0  0
 26 27  1  0  0  0  0
 26 28  1  0  0  0  0
 26 29  1  0  0  0  0
 30 31  1  0  0  0  0
 30 34  1  0  0  0  0
 30 35  1  0  0  0  0
 31 32  1  0  0  0  0
 31 33  1  0  0  0  0
M  END
>  <MODEL>
      22

$$$$
best_conformers_35.pdb
 OpenBabel01292518153D

 40 42  0  0  0  0  0  0  0  0999 V2000
   -8.6640   -0.6540  -21.3040 O   0  0  0  0  0  0  0  0  0  0  0  0
   -7.8030   -1.2980  -21.8770 C   0  0  0  0  0  0  0  0  0  0  0  0
   -6.7850   -2.0970  -21.0370 C   0  0  0  0  0  0  0  0  0  0  0  0
   -6.1330   -1.2140  -19.9920 C   0  0  0  0  0  0  0  0  0  0  0  0
   -6.5120   -1.2740  -18.6750 C   0  0  0  0  0  0  0  0  0  0  0  0
   -6.0150   -0.5060  -17.6670 N   0  0  0  0  0  0  0  0  0  0  0  0
   -5.0930    0.3700  -17.9980 C   0  0  0  0  0  0  0  0  0  0  0  0
   -4.6040    0.5560  -19.3230 C   0  0  0  0  0  0  0  0  0  0  0  0
   -3.6110    1.5270  -19.6280 C   0  0  0  0  0  0  0  0  0  0  0  0
   -3.1710    1.6870  -20.9160 C   0  0  0  0  0  0  0  0  0  0  0  0
   -3.7040    0.8880  -21.9490 C   0  0  0  0  0  0  0  0  0  0  0  0
   -4.6620   -0.0600  -21.6790 C   0  0  0  0  0  0  0  0  0  0  0  0
   -5.1390   -0.2520  -20.3520 C   0  0  0  0  0  0  0  0  0  0  0  0
   -5.0590   -0.6600  -22.4920 H   0  0  0  0  0  0  0  0  0  0  0  0
   -3.3510    1.0260  -22.9680 H   0  0  0  0  0  0  0  0  0  0  0  0
   -2.4150    2.4330  -21.1510 H   0  0  0  0  0  0  0  0  0  0  0  0
   -3.2110    2.1440  -18.8270 H   0  0  0  0  0  0  0  0  0  0  0  0
   -4.6840    0.9940  -17.2020 H   0  0  0  0  0  0  0  0  0  0  0  0
   -7.2730   -1.9920  -18.3710 H   0  0  0  0  0  0  0  0  0  0  0  0
   -7.3370   -2.8940  -20.5230 H   0  0  0  0  0  0  0  0  0  0  0  0
   -6.0150   -2.5800  -21.6480 H   0  0  0  0  0  0  0  0  0  0  0  0
   -7.6790   -1.2920  -23.2550 N   0  0  0  0  0  0  0  0  0  0  0  0
   -7.1300   -2.4130  -24.0190 C   0  0  0  0  0  0  0  0  0  0  0  0
   -7.6850   -2.4590  -25.4450 C   0  0  0  0  0  0  0  0  0  0  0  0
   -7.4760   -1.1490  -26.2190 C   0  0  0  0  0  0  0  0  0  0  0  0
   -6.2640   -1.2130  -27.1320 C   0  0  0  0  0  0  0  0  0  0  0  0
   -5.1300   -1.4690  -26.4500 F   0  0  0  0  0  0  0  0  0  0  0  0
   -6.0570   -0.0600  -27.7970 F   0  0  0  0  0  0  0  0  0  0  0  0
   -6.3690   -2.1800  -28.0630 F   0  0  0  0  0  0  0  0  0  0  0  0
   -7.3920    0.0710  -25.2880 C   0  0  0  0  0  0  0  0  0  0  0  0
   -8.1930   -0.1390  -24.0060 C   0  0  0  0  0  0  0  0  0  0  0  0
   -9.2590   -0.2620  -24.2380 H   0  0  0  0  0  0  0  0  0  0  0  0
   -8.1130    0.7530  -23.3800 H   0  0  0  0  0  0  0  0  0  0  0  0
   -7.7600    0.9590  -25.8150 H   0  0  0  0  0  0  0  0  0  0  0  0
   -6.3520    0.2850  -25.0200 H   0  0  0  0  0  0  0  0  0  0  0  0
   -8.3210   -1.0140  -26.9000 H   0  0  0  0  0  0  0  0  0  0  0  0
   -8.7580   -2.6720  -25.3970 H   0  0  0  0  0  0  0  0  0  0  0  0
   -7.2460   -3.3060  -25.9860 H   0  0  0  0  0  0  0  0  0  0  0  0
   -6.0340   -2.3680  -24.0560 H   0  0  0  0  0  0  0  0  0  0  0  0
   -7.3990   -3.3510  -23.5200 H   0  0  0  0  0  0  0  0  0  0  0  0
  1  2  2  0  0  0  0
  2  3  1  0  0  0  0
  2 22  1  0  0  0  0
  3  4  1  0  0  0  0
  3 20  1  0  0  0  0
  3 21  1  0  0  0  0
  4  5  2  0  0  0  0
  4 13  1  0  0  0  0
  5  6  1  0  0  0  0
  5 19  1  0  0  0  0
  6  7  2  0  0  0  0
  7  8  1  0  0  0  0
  7 18  1  0  0  0  0
  8  9  2  0  0  0  0
  8 13  1  0  0  0  0
  9 10  1  0  0  0  0
  9 17  1  0  0  0  0
 10 11  2  0  0  0  0
 10 16  1  0  0  0  0
 11 12  1  0  0  0  0
 11 15  1  0  0  0  0
 12 13  2  0  0  0  0
 12 14  1  0  0  0  0
 22 23  1  0  0  0  0
 22 31  1  0  0  0  0
 23 24  1  0  0  0  0
 23 39  1  0  0  0  0
 23 40  1  0  0  0  0
 24 25  1  0  0  0  0
 24 37  1  0  0  0  0
 24 38  1  0  0  0  0
 25 26  1  0  0  0  0
 25 30  1  0  0  0  0
 25 36  1  0  0  0  0
 26 27  1  0  0  0  0
 26 28  1  0  0  0  0
 26 29  1  0  0  0  0
 30 31  1  0  0  0  0
 30 34  1  0  0  0  0
 30 35  1  0  0  0  0
 31 32  1  0  0  0  0
 31 33  1  0  0  0  0
M  END
>  <MODEL>
      23

$$$$
best_conformers_35.pdb
 OpenBabel01292518153D

 40 42  0  0  0  0  0  0  0  0999 V2000
   -8.6640   -0.6540  -21.3040 O   0  0  0  0  0  0  0  0  0  0  0  0
   -7.8030   -1.2980  -21.8770 C   0  0  0  0  0  0  0  0  0  0  0  0
   -6.7850   -2.0970  -21.0370 C   0  0  0  0  0  0  0  0  0  0  0  0
   -6.1330   -1.2140  -19.9920 C   0  0  0  0  0  0  0  0  0  0  0  0
   -6.5120   -1.2740  -18.6750 C   0  0  0  0  0  0  0  0  0  0  0  0
   -6.0150   -0.5060  -17.6670 N   0  0  0  0  0  0  0  0  0  0  0  0
   -5.0930    0.3700  -17.9980 C   0  0  0  0  0  0  0  0  0  0  0  0
   -4.6040    0.5560  -19.3230 C   0  0  0  0  0  0  0  0  0  0  0  0
   -3.6110    1.5270  -19.6280 C   0  0  0  0  0  0  0  0  0  0  0  0
   -3.1710    1.6870  -20.9160 C   0  0  0  0  0  0  0  0  0  0  0  0
   -3.7040    0.8880  -21.9490 C   0  0  0  0  0  0  0  0  0  0  0  0
   -4.6620   -0.0600  -21.6790 C   0  0  0  0  0  0  0  0  0  0  0  0
   -5.1390   -0.2520  -20.3520 C   0  0  0  0  0  0  0  0  0  0  0  0
   -5.0590   -0.6600  -22.4920 H   0  0  0  0  0  0  0  0  0  0  0  0
   -3.3510    1.0260  -22.9680 H   0  0  0  0  0  0  0  0  0  0  0  0
   -2.4150    2.4330  -21.1510 H   0  0  0  0  0  0  0  0  0  0  0  0
   -3.2110    2.1440  -18.8270 H   0  0  0  0  0  0  0  0  0  0  0  0
   -4.6840    0.9940  -17.2020 H   0  0  0  0  0  0  0  0  0  0  0  0
   -7.2730   -1.9920  -18.3710 H   0  0  0  0  0  0  0  0  0  0  0  0
   -7.3370   -2.8940  -20.5230 H   0  0  0  0  0  0  0  0  0  0  0  0
   -6.0150   -2.5800  -21.6480 H   0  0  0  0  0  0  0  0  0  0  0  0
   -7.6790   -1.2920  -23.2550 N   0  0  0  0  0  0  0  0  0  0  0  0
   -7.1300   -2.4130  -24.0190 C   0  0  0  0  0  0  0  0  0  0  0  0
   -7.6850   -2.4590  -25.4450 C   0  0  0  0  0  0  0  0  0  0  0  0
   -7.4760   -1.1490  -26.2190 C   0  0  0  0  0  0  0  0  0  0  0  0
   -6.2640   -1.2120  -27.1320 C   0  0  0  0  0  0  0  0  0  0  0  0
   -6.3680   -2.1800  -28.0630 F   0  0  0  0  0  0  0  0  0  0  0  0
   -5.1300   -1.4690  -26.4500 F   0  0  0  0  0  0  0  0  0  0  0  0
   -6.0570   -0.0600  -27.7960 F   0  0  0  0  0  0  0  0  0  0  0  0
   -7.3920    0.0710  -25.2880 C   0  0  0  0  0  0  0  0  0  0  0  0
   -8.1930   -0.1390  -24.0060 C   0  0  0  0  0  0  0  0  0  0  0  0
   -9.2590   -0.2620  -24.2380 H   0  0  0  0  0  0  0  0  0  0  0  0
   -8.1130    0.7530  -23.3800 H   0  0  0  0  0  0  0  0  0  0  0  0
   -7.7600    0.9590  -25.8150 H   0  0  0  0  0  0  0  0  0  0  0  0
   -6.3510    0.2850  -25.0200 H   0  0  0  0  0  0  0  0  0  0  0  0
   -8.3210   -1.0140  -26.9000 H   0  0  0  0  0  0  0  0  0  0  0  0
   -8.7580   -2.6720  -25.3970 H   0  0  0  0  0  0  0  0  0  0  0  0
   -7.2460   -3.3060  -25.9860 H   0  0  0  0  0  0  0  0  0  0  0  0
   -6.0340   -2.3680  -24.0560 H   0  0  0  0  0  0  0  0  0  0  0  0
   -7.3990   -3.3510  -23.5200 H   0  0  0  0  0  0  0  0  0  0  0  0
  1  2  2  0  0  0  0
  2  3  1  0  0  0  0
  2 22  1  0  0  0  0
  3  4  1  0  0  0  0
  3 20  1  0  0  0  0
  3 21  1  0  0  0  0
  4  5  2  0  0  0  0
  4 13  1  0  0  0  0
  5  6  1  0  0  0  0
  5 19  1  0  0  0  0
  6  7  2  0  0  0  0
  7  8  1  0  0  0  0
  7 18  1  0  0  0  0
  8  9  2  0  0  0  0
  8 13  1  0  0  0  0
  9 10  1  0  0  0  0
  9 17  1  0  0  0  0
 10 11  2  0  0  0  0
 10 16  1  0  0  0  0
 11 12  1  0  0  0  0
 11 15  1  0  0  0  0
 12 13  2  0  0  0  0
 12 14  1  0  0  0  0
 22 23  1  0  0  0  0
 22 31  1  0  0  0  0
 23 24  1  0  0  0  0
 23 39  1  0  0  0  0
 23 40  1  0  0  0  0
 24 25  1  0  0  0  0
 24 37  1  0  0  0  0
 24 38  1  0  0  0  0
 25 26  1  0  0  0  0
 25 30  1  0  0  0  0
 25 36  1  0  0  0  0
 26 27  1  0  0  0  0
 26 28  1  0  0  0  0
 26 29  1  0  0  0  0
 30 31  1  0  0  0  0
 30 34  1  0  0  0  0
 30 35  1  0  0  0  0
 31 32  1  0  0  0  0
 31 33  1  0  0  0  0
M  END
>  <MODEL>
      24

$$$$
best_conformers_35.pdb
 OpenBabel01292518153D

 40 42  0  0  0  0  0  0  0  0999 V2000
   -8.6190   -0.5240  -21.3860 O   0  0  0  0  0  0  0  0  0  0  0  0
   -7.7870   -1.2460  -21.9150 C   0  0  0  0  0  0  0  0  0  0  0  0
   -6.8140   -2.0630  -21.0700 C   0  0  0  0  0  0  0  0  0  0  0  0
   -6.1410   -1.2190  -20.0170 C   0  0  0  0  0  0  0  0  0  0  0  0
   -6.5300   -1.2880  -18.7070 C   0  0  0  0  0  0  0  0  0  0  0  0
   -6.0430   -0.5280  -17.6860 N   0  0  0  0  0  0  0  0  0  0  0  0
   -5.1150    0.3440  -18.0020 C   0  0  0  0  0  0  0  0  0  0  0  0
   -4.6090    0.5330  -19.3190 C   0  0  0  0  0  0  0  0  0  0  0  0
   -3.6220    1.5110  -19.6140 C   0  0  0  0  0  0  0  0  0  0  0  0
   -3.1710    1.6800  -20.8980 C   0  0  0  0  0  0  0  0  0  0  0  0
   -3.6900    0.8800  -21.9430 C   0  0  0  0  0  0  0  0  0  0  0  0
   -4.6450   -0.0740  -21.6810 C   0  0  0  0  0  0  0  0  0  0  0  0
   -5.1320   -0.2710  -20.3600 C   0  0  0  0  0  0  0  0  0  0  0  0
   -5.0460   -0.6720  -22.4950 H   0  0  0  0  0  0  0  0  0  0  0  0
   -3.3370    1.0270  -22.9600 H   0  0  0  0  0  0  0  0  0  0  0  0
   -2.4260    2.4380  -21.1260 H   0  0  0  0  0  0  0  0  0  0  0  0
   -3.2450    2.1340  -18.8050 H   0  0  0  0  0  0  0  0  0  0  0  0
   -4.7190    0.9640  -17.1950 H   0  0  0  0  0  0  0  0  0  0  0  0
   -7.2940   -2.0060  -18.4170 H   0  0  0  0  0  0  0  0  0  0  0  0
   -7.4050   -2.8460  -20.5830 H   0  0  0  0  0  0  0  0  0  0  0  0
   -6.0760   -2.5480  -21.7140 H   0  0  0  0  0  0  0  0  0  0  0  0
   -7.6410   -1.3250  -23.2730 N   0  0  0  0  0  0  0  0  0  0  0  0
   -7.0690   -2.4740  -23.9670 C   0  0  0  0  0  0  0  0  0  0  0  0
   -7.4750   -2.4330  -25.4290 C   0  0  0  0  0  0  0  0  0  0  0  0
   -6.9240   -1.1570  -26.0680 C   0  0  0  0  0  0  0  0  0  0  0  0
   -7.4960   -1.0170  -27.4700 C   0  0  0  0  0  0  0  0  0  0  0  0
   -7.3360   -2.1210  -28.2230 F   0  0  0  0  0  0  0  0  0  0  0  0
   -8.8250   -0.8050  -27.3960 F   0  0  0  0  0  0  0  0  0  0  0  0
   -6.9870    0.0290  -28.1460 F   0  0  0  0  0  0  0  0  0  0  0  0
   -7.3120    0.0890  -25.2380 C   0  0  0  0  0  0  0  0  0  0  0  0
   -8.2220   -0.2570  -24.0690 C   0  0  0  0  0  0  0  0  0  0  0  0
   -9.2230   -0.5300  -24.4170 H   0  0  0  0  0  0  0  0  0  0  0  0
   -8.3490    0.5950  -23.4050 H   0  0  0  0  0  0  0  0  0  0  0  0
   -7.7990    0.8270  -25.8770 H   0  0  0  0  0  0  0  0  0  0  0  0
   -6.4170    0.5740  -24.8380 H   0  0  0  0  0  0  0  0  0  0  0  0
   -5.8390   -1.2380  -26.1530 H   0  0  0  0  0  0  0  0  0  0  0  0
   -7.1380   -3.3340  -25.9520 H   0  0  0  0  0  0  0  0  0  0  0  0
   -8.5580   -2.3940  -25.5210 H   0  0  0  0  0  0  0  0  0  0  0  0
   -7.4120   -3.4000  -23.5020 H   0  0  0  0  0  0  0  0  0  0  0  0
   -5.9710   -2.4680  -23.9150 H   0  0  0  0  0  0  0  0  0  0  0  0
  1  2  2  0  0  0  0
  2  3  1  0  0  0  0
  2 22  1  0  0  0  0
  3  4  1  0  0  0  0
  3 20  1  0  0  0  0
  3 21  1  0  0  0  0
  4  5  2  0  0  0  0
  4 13  1  0  0  0  0
  5  6  1  0  0  0  0
  5 19  1  0  0  0  0
  6  7  2  0  0  0  0
  7  8  1  0  0  0  0
  7 18  1  0  0  0  0
  8  9  2  0  0  0  0
  8 13  1  0  0  0  0
  9 10  1  0  0  0  0
  9 17  1  0  0  0  0
 10 11  2  0  0  0  0
 10 16  1  0  0  0  0
 11 12  1  0  0  0  0
 11 15  1  0  0  0  0
 12 13  2  0  0  0  0
 12 14  1  0  0  0  0
 22 23  1  0  0  0  0
 22 31  1  0  0  0  0
 23 24  1  0  0  0  0
 23 39  1  0  0  0  0
 23 40  1  0  0  0  0
 24 25  1  0  0  0  0
 24 37  1  0  0  0  0
 24 38  1  0  0  0  0
 25 26  1  0  0  0  0
 25 30  1  0  0  0  0
 25 36  1  0  0  0  0
 26 27  1  0  0  0  0
 26 28  1  0  0  0  0
 26 29  1  0  0  0  0
 30 31  1  0  0  0  0
 30 34  1  0  0  0  0
 30 35  1  0  0  0  0
 31 32  1  0  0  0  0
 31 33  1  0  0  0  0
M  END
>  <MODEL>
      25

$$$$
best_conformers_35.pdb
 OpenBabel01292518153D

 40 42  0  0  0  0  0  0  0  0999 V2000
   -8.6190   -0.5260  -21.3860 O   0  0  0  0  0  0  0  0  0  0  0  0
   -7.7870   -1.2460  -21.9150 C   0  0  0  0  0  0  0  0  0  0  0  0
   -6.8140   -2.0630  -21.0700 C   0  0  0  0  0  0  0  0  0  0  0  0
   -6.1400   -1.2190  -20.0170 C   0  0  0  0  0  0  0  0  0  0  0  0
   -6.5300   -1.2880  -18.7070 C   0  0  0  0  0  0  0  0  0  0  0  0
   -6.0430   -0.5280  -17.6860 N   0  0  0  0  0  0  0  0  0  0  0  0
   -5.1150    0.3450  -18.0030 C   0  0  0  0  0  0  0  0  0  0  0  0
   -4.6080    0.5330  -19.3190 C   0  0  0  0  0  0  0  0  0  0  0  0
   -3.6210    1.5110  -19.6140 C   0  0  0  0  0  0  0  0  0  0  0  0
   -3.1710    1.6800  -20.8990 C   0  0  0  0  0  0  0  0  0  0  0  0
   -3.6900    0.8800  -21.9430 C   0  0  0  0  0  0  0  0  0  0  0  0
   -4.6450   -0.0740  -21.6810 C   0  0  0  0  0  0  0  0  0  0  0  0
   -5.1320   -0.2710  -20.3600 C   0  0  0  0  0  0  0  0  0  0  0  0
   -5.0460   -0.6720  -22.4950 H   0  0  0  0  0  0  0  0  0  0  0  0
   -3.3370    1.0260  -22.9600 H   0  0  0  0  0  0  0  0  0  0  0  0
   -2.4260    2.4380  -21.1260 H   0  0  0  0  0  0  0  0  0  0  0  0
   -3.2450    2.1340  -18.8050 H   0  0  0  0  0  0  0  0  0  0  0  0
   -4.7190    0.9640  -17.1950 H   0  0  0  0  0  0  0  0  0  0  0  0
   -7.2940   -2.0050  -18.4160 H   0  0  0  0  0  0  0  0  0  0  0  0
   -6.0760   -2.5480  -21.7140 H   0  0  0  0  0  0  0  0  0  0  0  0
   -7.4040   -2.8460  -20.5830 H   0  0  0  0  0  0  0  0  0  0  0  0
   -7.6410   -1.3250  -23.2740 N   0  0  0  0  0  0  0  0  0  0  0  0
   -8.2230   -0.2570  -24.0680 C   0  0  0  0  0  0  0  0  0  0  0  0
   -7.3120    0.0890  -25.2380 C   0  0  0  0  0  0  0  0  0  0  0  0
   -6.9250   -1.1570  -26.0690 C   0  0  0  0  0  0  0  0  0  0  0  0
   -7.4990   -1.0170  -27.4700 C   0  0  0  0  0  0  0  0  0  0  0  0
   -7.3400   -2.1210  -28.2240 F   0  0  0  0  0  0  0  0  0  0  0  0
   -8.8280   -0.8060  -27.3940 F   0  0  0  0  0  0  0  0  0  0  0  0
   -6.9910    0.0290  -28.1470 F   0  0  0  0  0  0  0  0  0  0  0  0
   -7.4760   -2.4340  -25.4300 C   0  0  0  0  0  0  0  0  0  0  0  0
   -7.0700   -2.4730  -23.9680 C   0  0  0  0  0  0  0  0  0  0  0  0
   -7.4130   -3.4000  -23.5020 H   0  0  0  0  0  0  0  0  0  0  0  0
   -5.9720   -2.4680  -23.9160 H   0  0  0  0  0  0  0  0  0  0  0  0
   -8.5590   -2.3940  -25.5210 H   0  0  0  0  0  0  0  0  0  0  0  0
   -7.1380   -3.3350  -25.9530 H   0  0  0  0  0  0  0  0  0  0  0  0
   -5.8400   -1.2380  -26.1550 H   0  0  0  0  0  0  0  0  0  0  0  0
   -6.4170    0.5730  -24.8390 H   0  0  0  0  0  0  0  0  0  0  0  0
   -7.8000    0.8270  -25.8770 H   0  0  0  0  0  0  0  0  0  0  0  0
   -9.2250   -0.5290  -24.4160 H   0  0  0  0  0  0  0  0  0  0  0  0
   -8.3480    0.5950  -23.4040 H   0  0  0  0  0  0  0  0  0  0  0  0
  1  2  2  0  0  0  0
  2  3  1  0  0  0  0
  2 22  1  0  0  0  0
  3  4  1  0  0  0  0
  3 20  1  0  0  0  0
  3 21  1  0  0  0  0
  4  5  2  0  0  0  0
  4 13  1  0  0  0  0
  5  6  1  0  0  0  0
  5 19  1  0  0  0  0
  6  7  2  0  0  0  0
  7  8  1  0  0  0  0
  7 18  1  0  0  0  0
  8  9  2  0  0  0  0
  8 13  1  0  0  0  0
  9 10  1  0  0  0  0
  9 17  1  0  0  0  0
 10 11  2  0  0  0  0
 10 16  1  0  0  0  0
 11 12  1  0  0  0  0
 11 15  1  0  0  0  0
 12 13  2  0  0  0  0
 12 14  1  0  0  0  0
 22 23  1  0  0  0  0
 22 31  1  0  0  0  0
 23 24  1  0  0  0  0
 23 39  1  0  0  0  0
 23 40  1  0  0  0  0
 24 25  1  0  0  0  0
 24 37  1  0  0  0  0
 24 38  1  0  0  0  0
 25 26  1  0  0  0  0
 25 30  1  0  0  0  0
 25 36  1  0  0  0  0
 26 27  1  0  0  0  0
 26 28  1  0  0  0  0
 26 29  1  0  0  0  0
 30 31  1  0  0  0  0
 30 34  1  0  0  0  0
 30 35  1  0  0  0  0
 31 32  1  0  0  0  0
 31 33  1  0  0  0  0
M  END
>  <MODEL>
      26

$$$$
best_conformers_35.pdb
 OpenBabel01292518153D

 40 42  0  0  0  0  0  0  0  0999 V2000
   -8.6200   -0.5260  -21.3860 O   0  0  0  0  0  0  0  0  0  0  0  0
   -7.7870   -1.2460  -21.9150 C   0  0  0  0  0  0  0  0  0  0  0  0
   -6.8140   -2.0630  -21.0700 C   0  0  0  0  0  0  0  0  0  0  0  0
   -6.1400   -1.2180  -20.0170 C   0  0  0  0  0  0  0  0  0  0  0  0
   -6.5300   -1.2880  -18.7060 C   0  0  0  0  0  0  0  0  0  0  0  0
   -6.0430   -0.5270  -17.6860 N   0  0  0  0  0  0  0  0  0  0  0  0
   -5.1150    0.3450  -18.0030 C   0  0  0  0  0  0  0  0  0  0  0  0
   -4.6080    0.5340  -19.3180 C   0  0  0  0  0  0  0  0  0  0  0  0
   -3.6210    1.5110  -19.6140 C   0  0  0  0  0  0  0  0  0  0  0  0
   -3.1710    1.6800  -20.8990 C   0  0  0  0  0  0  0  0  0  0  0  0
   -3.6900    0.8800  -21.9430 C   0  0  0  0  0  0  0  0  0  0  0  0
   -4.6450   -0.0740  -21.6810 C   0  0  0  0  0  0  0  0  0  0  0  0
   -5.1320   -0.2710  -20.3600 C   0  0  0  0  0  0  0  0  0  0  0  0
   -5.0470   -0.6720  -22.4950 H   0  0  0  0  0  0  0  0  0  0  0  0
   -3.3380    1.0260  -22.9600 H   0  0  0  0  0  0  0  0  0  0  0  0
   -2.4260    2.4380  -21.1270 H   0  0  0  0  0  0  0  0  0  0  0  0
   -3.2450    2.1340  -18.8050 H   0  0  0  0  0  0  0  0  0  0  0  0
   -4.7190    0.9640  -17.1950 H   0  0  0  0  0  0  0  0  0  0  0  0
   -7.2930   -2.0050  -18.4150 H   0  0  0  0  0  0  0  0  0  0  0  0
   -7.4030   -2.8460  -20.5830 H   0  0  0  0  0  0  0  0  0  0  0  0
   -6.0760   -2.5480  -21.7150 H   0  0  0  0  0  0  0  0  0  0  0  0
   -7.6410   -1.3250  -23.2740 N   0  0  0  0  0  0  0  0  0  0  0  0
   -7.0700   -2.4730  -23.9680 C   0  0  0  0  0  0  0  0  0  0  0  0
   -7.4760   -2.4340  -25.4300 C   0  0  0  0  0  0  0  0  0  0  0  0
   -6.9260   -1.1580  -26.0690 C   0  0  0  0  0  0  0  0  0  0  0  0
   -7.5010   -1.0170  -27.4700 C   0  0  0  0  0  0  0  0  0  0  0  0
   -8.8290   -0.8060  -27.3930 F   0  0  0  0  0  0  0  0  0  0  0  0
   -7.3430   -2.1210  -28.2240 F   0  0  0  0  0  0  0  0  0  0  0  0
   -6.9950    0.0300  -28.1480 F   0  0  0  0  0  0  0  0  0  0  0  0
   -7.3130    0.0890  -25.2380 C   0  0  0  0  0  0  0  0  0  0  0  0
   -8.2230   -0.2570  -24.0680 C   0  0  0  0  0  0  0  0  0  0  0  0
   -8.3470    0.5950  -23.4030 H   0  0  0  0  0  0  0  0  0  0  0  0
   -9.2260   -0.5290  -24.4150 H   0  0  0  0  0  0  0  0  0  0  0  0
   -7.8010    0.8270  -25.8770 H   0  0  0  0  0  0  0  0  0  0  0  0
   -6.4170    0.5730  -24.8400 H   0  0  0  0  0  0  0  0  0  0  0  0
   -5.8410   -1.2380  -26.1570 H   0  0  0  0  0  0  0  0  0  0  0  0
   -8.5600   -2.3950  -25.5220 H   0  0  0  0  0  0  0  0  0  0  0  0
   -7.1380   -3.3350  -25.9530 H   0  0  0  0  0  0  0  0  0  0  0  0
   -5.9720   -2.4670  -23.9170 H   0  0  0  0  0  0  0  0  0  0  0  0
   -7.4140   -3.3990  -23.5020 H   0  0  0  0  0  0  0  0  0  0  0  0
  1  2  2  0  0  0  0
  2  3  1  0  0  0  0
  2 22  1  0  0  0  0
  3  4  1  0  0  0  0
  3 20  1  0  0  0  0
  3 21  1  0  0  0  0
  4  5  2  0  0  0  0
  4 13  1  0  0  0  0
  5  6  1  0  0  0  0
  5 19  1  0  0  0  0
  6  7  2  0  0  0  0
  7  8  1  0  0  0  0
  7 18  1  0  0  0  0
  8  9  2  0  0  0  0
  8 13  1  0  0  0  0
  9 10  1  0  0  0  0
  9 17  1  0  0  0  0
 10 11  2  0  0  0  0
 10 16  1  0  0  0  0
 11 12  1  0  0  0  0
 11 15  1  0  0  0  0
 12 13  2  0  0  0  0
 12 14  1  0  0  0  0
 22 23  1  0  0  0  0
 22 31  1  0  0  0  0
 23 24  1  0  0  0  0
 23 39  1  0  0  0  0
 23 40  1  0  0  0  0
 24 25  1  0  0  0  0
 24 37  1  0  0  0  0
 24 38  1  0  0  0  0
 25 26  1  0  0  0  0
 25 30  1  0  0  0  0
 25 36  1  0  0  0  0
 26 27  1  0  0  0  0
 26 28  1  0  0  0  0
 26 29  1  0  0  0  0
 30 31  1  0  0  0  0
 30 34  1  0  0  0  0
 30 35  1  0  0  0  0
 31 32  1  0  0  0  0
 31 33  1  0  0  0  0
M  END
>  <MODEL>
      27

$$$$
best_conformers_35.pdb
 OpenBabel01292518153D

 40 42  0  0  0  0  0  0  0  0999 V2000
   -8.6200   -0.5280  -21.3850 O   0  0  0  0  0  0  0  0  0  0  0  0
   -7.7870   -1.2510  -21.9150 C   0  0  0  0  0  0  0  0  0  0  0  0
   -6.8120   -2.0650  -21.0690 C   0  0  0  0  0  0  0  0  0  0  0  0
   -6.1400   -1.2180  -20.0150 C   0  0  0  0  0  0  0  0  0  0  0  0
   -6.5290   -1.2870  -18.7070 C   0  0  0  0  0  0  0  0  0  0  0  0
   -6.0420   -0.5260  -17.6850 N   0  0  0  0  0  0  0  0  0  0  0  0
   -5.1140    0.3460  -18.0030 C   0  0  0  0  0  0  0  0  0  0  0  0
   -4.6090    0.5340  -19.3180 C   0  0  0  0  0  0  0  0  0  0  0  0
   -3.6210    1.5120  -19.6160 C   0  0  0  0  0  0  0  0  0  0  0  0
   -3.1710    1.6810  -20.8990 C   0  0  0  0  0  0  0  0  0  0  0  0
   -3.6910    0.8790  -21.9430 C   0  0  0  0  0  0  0  0  0  0  0  0
   -4.6460   -0.0730  -21.6810 C   0  0  0  0  0  0  0  0  0  0  0  0
   -5.1320   -0.2700  -20.3610 C   0  0  0  0  0  0  0  0  0  0  0  0
   -5.0470   -0.6720  -22.4950 H   0  0  0  0  0  0  0  0  0  0  0  0
   -3.3380    1.0260  -22.9610 H   0  0  0  0  0  0  0  0  0  0  0  0
   -2.4250    2.4380  -21.1280 H   0  0  0  0  0  0  0  0  0  0  0  0
   -3.2440    2.1340  -18.8060 H   0  0  0  0  0  0  0  0  0  0  0  0
   -4.7170    0.9660  -17.1950 H   0  0  0  0  0  0  0  0  0  0  0  0
   -7.2930   -2.0040  -18.4130 H   0  0  0  0  0  0  0  0  0  0  0  0
   -6.0720   -2.5510  -21.7110 H   0  0  0  0  0  0  0  0  0  0  0  0
   -7.4010   -2.8480  -20.5800 H   0  0  0  0  0  0  0  0  0  0  0  0
   -7.6420   -1.3290  -23.2740 N   0  0  0  0  0  0  0  0  0  0  0  0
   -8.2250   -0.2620  -24.0700 C   0  0  0  0  0  0  0  0  0  0  0  0
   -7.3180    0.0780  -25.2440 C   0  0  0  0  0  0  0  0  0  0  0  0
   -6.9360   -1.1680  -26.0750 C   0  0  0  0  0  0  0  0  0  0  0  0
   -7.5130   -1.0340  -27.4730 C   0  0  0  0  0  0  0  0  0  0  0  0
   -7.0180    0.0160  -28.1550 F   0  0  0  0  0  0  0  0  0  0  0  0
   -8.8410   -0.8330  -27.3820 F   0  0  0  0  0  0  0  0  0  0  0  0
   -7.3500   -2.1370  -28.2270 F   0  0  0  0  0  0  0  0  0  0  0  0
   -7.4790   -2.4420  -25.4270 C   0  0  0  0  0  0  0  0  0  0  0  0
   -7.0720   -2.4770  -23.9670 C   0  0  0  0  0  0  0  0  0  0  0  0
   -7.4140   -3.4030  -23.4990 H   0  0  0  0  0  0  0  0  0  0  0  0
   -5.9750   -2.4730  -23.9170 H   0  0  0  0  0  0  0  0  0  0  0  0
   -7.1390   -3.3400  -25.9490 H   0  0  0  0  0  0  0  0  0  0  0  0
   -8.5640   -2.4150  -25.5190 H   0  0  0  0  0  0  0  0  0  0  0  0
   -5.8480   -1.2460  -26.1700 H   0  0  0  0  0  0  0  0  0  0  0  0
   -6.4210    0.5610  -24.8510 H   0  0  0  0  0  0  0  0  0  0  0  0
   -7.8050    0.8190  -25.8810 H   0  0  0  0  0  0  0  0  0  0  0  0
   -8.3470    0.5930  -23.4090 H   0  0  0  0  0  0  0  0  0  0  0  0
   -9.2280   -0.5320  -24.4130 H   0  0  0  0  0  0  0  0  0  0  0  0
  1  2  2  0  0  0  0
  2  3  1  0  0  0  0
  2 22  1  0  0  0  0
  3  4  1  0  0  0  0
  3 20  1  0  0  0  0
  3 21  1  0  0  0  0
  4  5  2  0  0  0  0
  4 13  1  0  0  0  0
  5  6  1  0  0  0  0
  5 19  1  0  0  0  0
  6  7  2  0  0  0  0
  7  8  1  0  0  0  0
  7 18  1  0  0  0  0
  8  9  2  0  0  0  0
  8 13  1  0  0  0  0
  9 10  1  0  0  0  0
  9 17  1  0  0  0  0
 10 11  2  0  0  0  0
 10 16  1  0  0  0  0
 11 12  1  0  0  0  0
 11 15  1  0  0  0  0
 12 13  2  0  0  0  0
 12 14  1  0  0  0  0
 22 23  1  0  0  0  0
 22 31  1  0  0  0  0
 23 24  1  0  0  0  0
 23 39  1  0  0  0  0
 23 40  1  0  0  0  0
 24 25  1  0  0  0  0
 24 37  1  0  0  0  0
 24 38  1  0  0  0  0
 25 26  1  0  0  0  0
 25 30  1  0  0  0  0
 25 36  1  0  0  0  0
 26 27  1  0  0  0  0
 26 28  1  0  0  0  0
 26 29  1  0  0  0  0
 30 31  1  0  0  0  0
 30 34  1  0  0  0  0
 30 35  1  0  0  0  0
 31 32  1  0  0  0  0
 31 33  1  0  0  0  0
M  END
>  <MODEL>
      28

$$$$
best_conformers_35.pdb
 OpenBabel01292518153D

 40 42  0  0  0  0  0  0  0  0999 V2000
   -8.6200   -0.5260  -21.3860 O   0  0  0  0  0  0  0  0  0  0  0  0
   -7.7870   -1.2460  -21.9150 C   0  0  0  0  0  0  0  0  0  0  0  0
   -6.8140   -2.0630  -21.0700 C   0  0  0  0  0  0  0  0  0  0  0  0
   -6.1400   -1.2180  -20.0170 C   0  0  0  0  0  0  0  0  0  0  0  0
   -6.5300   -1.2880  -18.7060 C   0  0  0  0  0  0  0  0  0  0  0  0
   -6.0430   -0.5270  -17.6860 N   0  0  0  0  0  0  0  0  0  0  0  0
   -5.1150    0.3450  -18.0030 C   0  0  0  0  0  0  0  0  0  0  0  0
   -4.6080    0.5330  -19.3190 C   0  0  0  0  0  0  0  0  0  0  0  0
   -3.6210    1.5110  -19.6140 C   0  0  0  0  0  0  0  0  0  0  0  0
   -3.1710    1.6800  -20.8990 C   0  0  0  0  0  0  0  0  0  0  0  0
   -3.6900    0.8790  -21.9430 C   0  0  0  0  0  0  0  0  0  0  0  0
   -4.6450   -0.0740  -21.6810 C   0  0  0  0  0  0  0  0  0  0  0  0
   -5.1320   -0.2710  -20.3600 C   0  0  0  0  0  0  0  0  0  0  0  0
   -5.0470   -0.6720  -22.4940 H   0  0  0  0  0  0  0  0  0  0  0  0
   -3.3380    1.0260  -22.9610 H   0  0  0  0  0  0  0  0  0  0  0  0
   -2.4260    2.4380  -21.1270 H   0  0  0  0  0  0  0  0  0  0  0  0
   -3.2450    2.1340  -18.8050 H   0  0  0  0  0  0  0  0  0  0  0  0
   -4.7190    0.9640  -17.1950 H   0  0  0  0  0  0  0  0  0  0  0  0
   -7.2930   -2.0050  -18.4150 H   0  0  0  0  0  0  0  0  0  0  0  0
   -7.4030   -2.8460  -20.5830 H   0  0  0  0  0  0  0  0  0  0  0  0
   -6.0760   -2.5480  -21.7150 H   0  0  0  0  0  0  0  0  0  0  0  0
   -7.6410   -1.3250  -23.2740 N   0  0  0  0  0  0  0  0  0  0  0  0
   -7.0700   -2.4730  -23.9680 C   0  0  0  0  0  0  0  0  0  0  0  0
   -7.4760   -2.4340  -25.4300 C   0  0  0  0  0  0  0  0  0  0  0  0
   -6.9260   -1.1570  -26.0690 C   0  0  0  0  0  0  0  0  0  0  0  0
   -7.5010   -1.0170  -27.4700 C   0  0  0  0  0  0  0  0  0  0  0  0
   -6.9940    0.0300  -28.1480 F   0  0  0  0  0  0  0  0  0  0  0  0
   -8.8290   -0.8060  -27.3920 F   0  0  0  0  0  0  0  0  0  0  0  0
   -7.3430   -2.1210  -28.2240 F   0  0  0  0  0  0  0  0  0  0  0  0
   -7.3130    0.0890  -25.2380 C   0  0  0  0  0  0  0  0  0  0  0  0
   -8.2230   -0.2570  -24.0680 C   0  0  0  0  0  0  0  0  0  0  0  0
   -8.3470    0.5950  -23.4030 H   0  0  0  0  0  0  0  0  0  0  0  0
   -9.2260   -0.5290  -24.4150 H   0  0  0  0  0  0  0  0  0  0  0  0
   -7.8010    0.8270  -25.8770 H   0  0  0  0  0  0  0  0  0  0  0  0
   -6.4170    0.5730  -24.8390 H   0  0  0  0  0  0  0  0  0  0  0  0
   -5.8410   -1.2380  -26.1560 H   0  0  0  0  0  0  0  0  0  0  0  0
   -8.5600   -2.3940  -25.5220 H   0  0  0  0  0  0  0  0  0  0  0  0
   -7.1380   -3.3350  -25.9530 H   0  0  0  0  0  0  0  0  0  0  0  0
   -7.4140   -3.3990  -23.5020 H   0  0  0  0  0  0  0  0  0  0  0  0
   -5.9720   -2.4670  -23.9170 H   0  0  0  0  0  0  0  0  0  0  0  0
  1  2  2  0  0  0  0
  2  3  1  0  0  0  0
  2 22  1  0  0  0  0
  3  4  1  0  0  0  0
  3 20  1  0  0  0  0
  3 21  1  0  0  0  0
  4  5  2  0  0  0  0
  4 13  1  0  0  0  0
  5  6  1  0  0  0  0
  5 19  1  0  0  0  0
  6  7  2  0  0  0  0
  7  8  1  0  0  0  0
  7 18  1  0  0  0  0
  8  9  2  0  0  0  0
  8 13  1  0  0  0  0
  9 10  1  0  0  0  0
  9 17  1  0  0  0  0
 10 11  2  0  0  0  0
 10 16  1  0  0  0  0
 11 12  1  0  0  0  0
 11 15  1  0  0  0  0
 12 13  2  0  0  0  0
 12 14  1  0  0  0  0
 22 23  1  0  0  0  0
 22 31  1  0  0  0  0
 23 24  1  0  0  0  0
 23 39  1  0  0  0  0
 23 40  1  0  0  0  0
 24 25  1  0  0  0  0
 24 37  1  0  0  0  0
 24 38  1  0  0  0  0
 25 26  1  0  0  0  0
 25 30  1  0  0  0  0
 25 36  1  0  0  0  0
 26 27  1  0  0  0  0
 26 28  1  0  0  0  0
 26 29  1  0  0  0  0
 30 31  1  0  0  0  0
 30 34  1  0  0  0  0
 30 35  1  0  0  0  0
 31 32  1  0  0  0  0
 31 33  1  0  0  0  0
M  END
>  <MODEL>
      29

$$$$
best_conformers_35.pdb
 OpenBabel01292518153D

 40 42  0  0  0  0  0  0  0  0999 V2000
   -8.6200   -0.5270  -21.3850 O   0  0  0  0  0  0  0  0  0  0  0  0
   -7.7870   -1.2460  -21.9150 C   0  0  0  0  0  0  0  0  0  0  0  0
   -6.8140   -2.0630  -21.0700 C   0  0  0  0  0  0  0  0  0  0  0  0
   -6.1400   -1.2180  -20.0170 C   0  0  0  0  0  0  0  0  0  0  0  0
   -6.5300   -1.2880  -18.7060 C   0  0  0  0  0  0  0  0  0  0  0  0
   -6.0430   -0.5270  -17.6860 N   0  0  0  0  0  0  0  0  0  0  0  0
   -5.1140    0.3450  -18.0030 C   0  0  0  0  0  0  0  0  0  0  0  0
   -4.6080    0.5340  -19.3190 C   0  0  0  0  0  0  0  0  0  0  0  0
   -3.6210    1.5110  -19.6140 C   0  0  0  0  0  0  0  0  0  0  0  0
   -3.1710    1.6800  -20.8990 C   0  0  0  0  0  0  0  0  0  0  0  0
   -3.6900    0.8800  -21.9430 C   0  0  0  0  0  0  0  0  0  0  0  0
   -4.6450   -0.0740  -21.6810 C   0  0  0  0  0  0  0  0  0  0  0  0
   -5.1320   -0.2710  -20.3600 C   0  0  0  0  0  0  0  0  0  0  0  0
   -5.0470   -0.6720  -22.4940 H   0  0  0  0  0  0  0  0  0  0  0  0
   -3.3380    1.0260  -22.9610 H   0  0  0  0  0  0  0  0  0  0  0  0
   -2.4260    2.4380  -21.1270 H   0  0  0  0  0  0  0  0  0  0  0  0
   -3.2450    2.1340  -18.8050 H   0  0  0  0  0  0  0  0  0  0  0  0
   -4.7190    0.9640  -17.1950 H   0  0  0  0  0  0  0  0  0  0  0  0
   -7.2930   -2.0050  -18.4150 H   0  0  0  0  0  0  0  0  0  0  0  0
   -7.4030   -2.8460  -20.5820 H   0  0  0  0  0  0  0  0  0  0  0  0
   -6.0760   -2.5480  -21.7150 H   0  0  0  0  0  0  0  0  0  0  0  0
   -7.6410   -1.3250  -23.2740 N   0  0  0  0  0  0  0  0  0  0  0  0
   -7.0700   -2.4730  -23.9680 C   0  0  0  0  0  0  0  0  0  0  0  0
   -7.4770   -2.4340  -25.4300 C   0  0  0  0  0  0  0  0  0  0  0  0
   -6.9260   -1.1570  -26.0700 C   0  0  0  0  0  0  0  0  0  0  0  0
   -7.5020   -1.0170  -27.4700 C   0  0  0  0  0  0  0  0  0  0  0  0
   -8.8300   -0.8060  -27.3920 F   0  0  0  0  0  0  0  0  0  0  0  0
   -6.9960    0.0300  -28.1480 F   0  0  0  0  0  0  0  0  0  0  0  0
   -7.3440   -2.1210  -28.2250 F   0  0  0  0  0  0  0  0  0  0  0  0
   -7.3130    0.0890  -25.2380 C   0  0  0  0  0  0  0  0  0  0  0  0
   -8.2230   -0.2570  -24.0680 C   0  0  0  0  0  0  0  0  0  0  0  0
   -8.3470    0.5950  -23.4030 H   0  0  0  0  0  0  0  0  0  0  0  0
   -9.2260   -0.5290  -24.4140 H   0  0  0  0  0  0  0  0  0  0  0  0
   -6.4170    0.5730  -24.8400 H   0  0  0  0  0  0  0  0  0  0  0  0
   -7.8020    0.8270  -25.8770 H   0  0  0  0  0  0  0  0  0  0  0  0
   -5.8420   -1.2380  -26.1570 H   0  0  0  0  0  0  0  0  0  0  0  0
   -8.5600   -2.3950  -25.5220 H   0  0  0  0  0  0  0  0  0  0  0  0
   -7.1380   -3.3350  -25.9530 H   0  0  0  0  0  0  0  0  0  0  0  0
   -7.4140   -3.3990  -23.5020 H   0  0  0  0  0  0  0  0  0  0  0  0
   -5.9720   -2.4670  -23.9170 H   0  0  0  0  0  0  0  0  0  0  0  0
  1  2  2  0  0  0  0
  2  3  1  0  0  0  0
  2 22  1  0  0  0  0
  3  4  1  0  0  0  0
  3 20  1  0  0  0  0
  3 21  1  0  0  0  0
  4  5  2  0  0  0  0
  4 13  1  0  0  0  0
  5  6  1  0  0  0  0
  5 19  1  0  0  0  0
  6  7  2  0  0  0  0
  7  8  1  0  0  0  0
  7 18  1  0  0  0  0
  8  9  2  0  0  0  0
  8 13  1  0  0  0  0
  9 10  1  0  0  0  0
  9 17  1  0  0  0  0
 10 11  2  0  0  0  0
 10 16  1  0  0  0  0
 11 12  1  0  0  0  0
 11 15  1  0  0  0  0
 12 13  2  0  0  0  0
 12 14  1  0  0  0  0
 22 23  1  0  0  0  0
 22 31  1  0  0  0  0
 23 24  1  0  0  0  0
 23 39  1  0  0  0  0
 23 40  1  0  0  0  0
 24 25  1  0  0  0  0
 24 37  1  0  0  0  0
 24 38  1  0  0  0  0
 25 26  1  0  0  0  0
 25 30  1  0  0  0  0
 25 36  1  0  0  0  0
 26 27  1  0  0  0  0
 26 28  1  0  0  0  0
 26 29  1  0  0  0  0
 30 31  1  0  0  0  0
 30 34  1  0  0  0  0
 30 35  1  0  0  0  0
 31 32  1  0  0  0  0
 31 33  1  0  0  0  0
M  END
>  <MODEL>
      30

$$$$
best_conformers_35.pdb
 OpenBabel01292518153D

 40 42  0  0  0  0  0  0  0  0999 V2000
   -8.6200   -0.5270  -21.3850 O   0  0  0  0  0  0  0  0  0  0  0  0
   -7.7870   -1.2470  -21.9150 C   0  0  0  0  0  0  0  0  0  0  0  0
   -6.8140   -2.0630  -21.0700 C   0  0  0  0  0  0  0  0  0  0  0  0
   -6.1400   -1.2180  -20.0170 C   0  0  0  0  0  0  0  0  0  0  0  0
   -6.5300   -1.2870  -18.7060 C   0  0  0  0  0  0  0  0  0  0  0  0
   -6.0420   -0.5270  -17.6860 N   0  0  0  0  0  0  0  0  0  0  0  0
   -5.1140    0.3450  -18.0030 C   0  0  0  0  0  0  0  0  0  0  0  0
   -4.6080    0.5340  -19.3190 C   0  0  0  0  0  0  0  0  0  0  0  0
   -3.6210    1.5110  -19.6140 C   0  0  0  0  0  0  0  0  0  0  0  0
   -3.1710    1.6800  -20.9000 C   0  0  0  0  0  0  0  0  0  0  0  0
   -3.6900    0.8800  -21.9430 C   0  0  0  0  0  0  0  0  0  0  0  0
   -4.6450   -0.0740  -21.6810 C   0  0  0  0  0  0  0  0  0  0  0  0
   -5.1320   -0.2700  -20.3600 C   0  0  0  0  0  0  0  0  0  0  0  0
   -5.0470   -0.6710  -22.4940 H   0  0  0  0  0  0  0  0  0  0  0  0
   -3.3380    1.0260  -22.9610 H   0  0  0  0  0  0  0  0  0  0  0  0
   -2.4260    2.4380  -21.1270 H   0  0  0  0  0  0  0  0  0  0  0  0
   -3.2450    2.1340  -18.8050 H   0  0  0  0  0  0  0  0  0  0  0  0
   -4.7190    0.9640  -17.1950 H   0  0  0  0  0  0  0  0  0  0  0  0
   -7.2930   -2.0050  -18.4150 H   0  0  0  0  0  0  0  0  0  0  0  0
   -6.0760   -2.5480  -21.7150 H   0  0  0  0  0  0  0  0  0  0  0  0
   -7.4030   -2.8460  -20.5820 H   0  0  0  0  0  0  0  0  0  0  0  0
   -7.6410   -1.3250  -23.2740 N   0  0  0  0  0  0  0  0  0  0  0  0
   -8.2240   -0.2570  -24.0680 C   0  0  0  0  0  0  0  0  0  0  0  0
   -7.3140    0.0890  -25.2380 C   0  0  0  0  0  0  0  0  0  0  0  0
   -6.9270   -1.1580  -26.0700 C   0  0  0  0  0  0  0  0  0  0  0  0
   -7.5030   -1.0170  -27.4710 C   0  0  0  0  0  0  0  0  0  0  0  0
   -7.3460   -2.1210  -28.2250 F   0  0  0  0  0  0  0  0  0  0  0  0
   -6.9980    0.0300  -28.1490 F   0  0  0  0  0  0  0  0  0  0  0  0
   -8.8310   -0.8060  -27.3910 F   0  0  0  0  0  0  0  0  0  0  0  0
   -7.4770   -2.4340  -25.4300 C   0  0  0  0  0  0  0  0  0  0  0  0
   -7.0710   -2.4730  -23.9690 C   0  0  0  0  0  0  0  0  0  0  0  0
   -5.9730   -2.4670  -23.9180 H   0  0  0  0  0  0  0  0  0  0  0  0
   -7.4150   -3.3990  -23.5020 H   0  0  0  0  0  0  0  0  0  0  0  0
   -8.5610   -2.3950  -25.5220 H   0  0  0  0  0  0  0  0  0  0  0  0
   -7.1380   -3.3350  -25.9530 H   0  0  0  0  0  0  0  0  0  0  0  0
   -5.8420   -1.2380  -26.1580 H   0  0  0  0  0  0  0  0  0  0  0  0
   -6.4170    0.5720  -24.8400 H   0  0  0  0  0  0  0  0  0  0  0  0
   -7.8020    0.8270  -25.8770 H   0  0  0  0  0  0  0  0  0  0  0  0
   -9.2270   -0.5280  -24.4130 H   0  0  0  0  0  0  0  0  0  0  0  0
   -8.3470    0.5950  -23.4030 H   0  0  0  0  0  0  0  0  0  0  0  0
  1  2  2  0  0  0  0
  2  3  1  0  0  0  0
  2 22  1  0  0  0  0
  3  4  1  0  0  0  0
  3 20  1  0  0  0  0
  3 21  1  0  0  0  0
  4  5  2  0  0  0  0
  4 13  1  0  0  0  0
  5  6  1  0  0  0  0
  5 19  1  0  0  0  0
  6  7  2  0  0  0  0
  7  8  1  0  0  0  0
  7 18  1  0  0  0  0
  8  9  2  0  0  0  0
  8 13  1  0  0  0  0
  9 10  1  0  0  0  0
  9 17  1  0  0  0  0
 10 11  2  0  0  0  0
 10 16  1  0  0  0  0
 11 12  1  0  0  0  0
 11 15  1  0  0  0  0
 12 13  2  0  0  0  0
 12 14  1  0  0  0  0
 22 23  1  0  0  0  0
 22 31  1  0  0  0  0
 23 24  1  0  0  0  0
 23 39  1  0  0  0  0
 23 40  1  0  0  0  0
 24 25  1  0  0  0  0
 24 37  1  0  0  0  0
 24 38  1  0  0  0  0
 25 26  1  0  0  0  0
 25 30  1  0  0  0  0
 25 36  1  0  0  0  0
 26 27  1  0  0  0  0
 26 28  1  0  0  0  0
 26 29  1  0  0  0  0
 30 31  1  0  0  0  0
 30 34  1  0  0  0  0
 30 35  1  0  0  0  0
 31 32  1  0  0  0  0
 31 33  1  0  0  0  0
M  END
>  <MODEL>
      31

$$$$
best_conformers_35.pdb
 OpenBabel01292518153D

 40 42  0  0  0  0  0  0  0  0999 V2000
   -8.6180   -0.5310  -21.3880 O   0  0  0  0  0  0  0  0  0  0  0  0
   -7.7860   -1.2530  -21.9170 C   0  0  0  0  0  0  0  0  0  0  0  0
   -6.8110   -2.0660  -21.0690 C   0  0  0  0  0  0  0  0  0  0  0  0
   -6.1400   -1.2180  -20.0140 C   0  0  0  0  0  0  0  0  0  0  0  0
   -6.5290   -1.2870  -18.7070 C   0  0  0  0  0  0  0  0  0  0  0  0
   -6.0420   -0.5260  -17.6850 N   0  0  0  0  0  0  0  0  0  0  0  0
   -5.1130    0.3470  -18.0030 C   0  0  0  0  0  0  0  0  0  0  0  0
   -4.6080    0.5340  -19.3170 C   0  0  0  0  0  0  0  0  0  0  0  0
   -3.6200    1.5120  -19.6160 C   0  0  0  0  0  0  0  0  0  0  0  0
   -3.1710    1.6800  -20.8990 C   0  0  0  0  0  0  0  0  0  0  0  0
   -3.6910    0.8790  -21.9440 C   0  0  0  0  0  0  0  0  0  0  0  0
   -4.6460   -0.0730  -21.6810 C   0  0  0  0  0  0  0  0  0  0  0  0
   -5.1320   -0.2700  -20.3610 C   0  0  0  0  0  0  0  0  0  0  0  0
   -5.0480   -0.6720  -22.4940 H   0  0  0  0  0  0  0  0  0  0  0  0
   -3.3380    1.0260  -22.9610 H   0  0  0  0  0  0  0  0  0  0  0  0
   -2.4250    2.4370  -21.1280 H   0  0  0  0  0  0  0  0  0  0  0  0
   -3.2440    2.1340  -18.8060 H   0  0  0  0  0  0  0  0  0  0  0  0
   -4.7170    0.9660  -17.1950 H   0  0  0  0  0  0  0  0  0  0  0  0
   -7.2920   -2.0040  -18.4120 H   0  0  0  0  0  0  0  0  0  0  0  0
   -6.0710   -2.5520  -21.7100 H   0  0  0  0  0  0  0  0  0  0  0  0
   -7.3990   -2.8480  -20.5790 H   0  0  0  0  0  0  0  0  0  0  0  0
   -7.6420   -1.3350  -23.2750 N   0  0  0  0  0  0  0  0  0  0  0  0
   -8.2260   -0.2700  -24.0740 C   0  0  0  0  0  0  0  0  0  0  0  0
   -7.3210    0.0660  -25.2500 C   0  0  0  0  0  0  0  0  0  0  0  0
   -6.9360   -1.1830  -26.0780 C   0  0  0  0  0  0  0  0  0  0  0  0
   -7.5210   -1.0570  -27.4740 C   0  0  0  0  0  0  0  0  0  0  0  0
   -7.0410   -0.0030  -28.1610 F   0  0  0  0  0  0  0  0  0  0  0  0
   -7.3530   -2.1600  -28.2270 F   0  0  0  0  0  0  0  0  0  0  0  0
   -8.8520   -0.8680  -27.3770 F   0  0  0  0  0  0  0  0  0  0  0  0
   -7.4800   -2.4560  -25.4250 C   0  0  0  0  0  0  0  0  0  0  0  0
   -7.0710   -2.4850  -23.9650 C   0  0  0  0  0  0  0  0  0  0  0  0
   -5.9740   -2.4780  -23.9160 H   0  0  0  0  0  0  0  0  0  0  0  0
   -7.4130   -3.4090  -23.4940 H   0  0  0  0  0  0  0  0  0  0  0  0
   -8.5640   -2.4280  -25.5160 H   0  0  0  0  0  0  0  0  0  0  0  0
   -7.1380   -3.3560  -25.9440 H   0  0  0  0  0  0  0  0  0  0  0  0
   -5.8500   -1.2600  -26.1750 H   0  0  0  0  0  0  0  0  0  0  0  0
   -6.4220    0.5510  -24.8600 H   0  0  0  0  0  0  0  0  0  0  0  0
   -7.8090    0.8040  -25.8900 H   0  0  0  0  0  0  0  0  0  0  0  0
   -9.2300   -0.5410  -24.4140 H   0  0  0  0  0  0  0  0  0  0  0  0
   -8.3450    0.5860  -23.4150 H   0  0  0  0  0  0  0  0  0  0  0  0
  1  2  2  0  0  0  0
  2  3  1  0  0  0  0
  2 22  1  0  0  0  0
  3  4  1  0  0  0  0
  3 20  1  0  0  0  0
  3 21  1  0  0  0  0
  4  5  2  0  0  0  0
  4 13  1  0  0  0  0
  5  6  1  0  0  0  0
  5 19  1  0  0  0  0
  6  7  2  0  0  0  0
  7  8  1  0  0  0  0
  7 18  1  0  0  0  0
  8  9  2  0  0  0  0
  8 13  1  0  0  0  0
  9 10  1  0  0  0  0
  9 17  1  0  0  0  0
 10 11  2  0  0  0  0
 10 16  1  0  0  0  0
 11 12  1  0  0  0  0
 11 15  1  0  0  0  0
 12 13  2  0  0  0  0
 12 14  1  0  0  0  0
 22 23  1  0  0  0  0
 22 31  1  0  0  0  0
 23 24  1  0  0  0  0
 23 39  1  0  0  0  0
 23 40  1  0  0  0  0
 24 25  1  0  0  0  0
 24 37  1  0  0  0  0
 24 38  1  0  0  0  0
 25 26  1  0  0  0  0
 25 30  1  0  0  0  0
 25 36  1  0  0  0  0
 26 27  1  0  0  0  0
 26 28  1  0  0  0  0
 26 29  1  0  0  0  0
 30 31  1  0  0  0  0
 30 34  1  0  0  0  0
 30 35  1  0  0  0  0
 31 32  1  0  0  0  0
 31 33  1  0  0  0  0
M  END
>  <MODEL>
      32

$$$$
