best_conformers_44.pdb
 OpenBabel01292518153D

 60 64  0  0  1  0  0  0  0  0999 V2000
   -6.9150   -1.5330  -29.4570 C   0  0  0  0  0  0  0  0  0  0  0  0
   -7.0500   -2.6300  -28.5290 N   0  0  0  0  0  0  0  0  0  0  0  0
   -6.3960   -2.5480  -27.3400 C   0  0  0  0  0  0  0  0  0  0  0  0
   -5.7010   -1.5920  -27.0360 O   0  0  0  0  0  0  0  0  0  0  0  0
   -6.6160   -3.7190  -26.3830 C   0  0  0  0  0  0  0  0  0  0  0  0
   -7.5470   -3.3430  -25.3310 N   0  0  0  0  0  0  0  0  0  0  0  0
   -7.0810   -2.4820  -24.2470 C   0  0  0  0  0  0  0  0  0  0  0  0
   -7.8840   -2.7070  -22.9470 C   0  0  2  0  0  0  0  0  0  0  0  0
   -7.5250   -1.5620  -21.9950 C   0  0  0  0  0  0  0  0  0  0  0  0
   -7.8260   -0.3930  -22.1190 O   0  0  0  0  0  0  0  0  0  0  0  0
   -6.7280   -2.0540  -20.9830 N   0  0  0  0  0  0  0  0  0  0  0  0
   -6.1530   -1.2050  -20.0150 C   0  0  0  0  0  0  0  0  0  0  0  0
   -6.5400   -1.3210  -18.7060 C   0  0  0  0  0  0  0  0  0  0  0  0
   -6.0590   -0.5600  -17.6930 N   0  0  0  0  0  0  0  0  0  0  0  0
   -5.1440    0.3310  -18.0060 C   0  0  0  0  0  0  0  0  0  0  0  0
   -4.6380    0.5300  -19.3230 C   0  0  0  0  0  0  0  0  0  0  0  0
   -3.6440    1.5050  -19.5980 C   0  0  0  0  0  0  0  0  0  0  0  0
   -3.1510    1.6550  -20.8660 C   0  0  0  0  0  0  0  0  0  0  0  0
   -3.6330    0.8430  -21.9190 C   0  0  0  0  0  0  0  0  0  0  0  0
   -4.6050   -0.0950  -21.6830 C   0  0  0  0  0  0  0  0  0  0  0  0
   -5.1420   -0.2650  -20.3720 C   0  0  0  0  0  0  0  0  0  0  0  0
   -4.9800   -0.7020  -22.5040 H   0  0  0  0  0  0  0  0  0  0  0  0
   -3.2330    0.9680  -22.9200 H   0  0  0  0  0  0  0  0  0  0  0  0
   -2.3860    2.3980  -21.0730 H   0  0  0  0  0  0  0  0  0  0  0  0
   -3.2850    2.1220  -18.7800 H   0  0  0  0  0  0  0  0  0  0  0  0
   -4.7520    0.9490  -17.1980 H   0  0  0  0  0  0  0  0  0  0  0  0
   -7.3000   -2.0550  -18.4410 H   0  0  0  0  0  0  0  0  0  0  0  0
   -6.3490   -3.4440  -21.1440 C   0  0  0  0  0  0  0  0  0  0  0  0
   -7.4430   -3.9470  -22.0850 C   0  0  2  0  0  0  0  0  0  0  0  0
   -7.0870   -5.2290  -22.8120 C   0  0  0  0  0  0  0  0  0  0  0  0
   -5.8150   -5.0770  -23.4020 O   0  0  0  0  0  0  0  0  0  0  0  0
   -5.3660   -6.2320  -24.0570 C   0  0  0  0  0  0  0  0  0  0  0  0
   -4.3750   -6.0080  -24.4670 H   0  0  0  0  0  0  0  0  0  0  0  0
   -6.0430   -6.5200  -24.8790 H   0  0  0  0  0  0  0  0  0  0  0  0
   -5.2780   -7.0790  -23.3580 H   0  0  0  0  0  0  0  0  0  0  0  0
   -7.8520   -5.4400  -23.5730 H   0  0  0  0  0  0  0  0  0  0  0  0
   -7.0810   -6.0740  -22.1010 H   0  0  0  0  0  0  0  0  0  0  0  0
   -8.3180   -4.1600  -21.4650 H   0  0  0  0  0  0  0  0  0  0  0  0
   -6.3420   -3.9570  -20.1760 H   0  0  0  0  0  0  0  0  0  0  0  0
   -5.3480   -3.5500  -21.5850 H   0  0  0  0  0  0  0  0  0  0  0  0
   -9.3720   -2.7480  -23.2790 C   0  0  0  0  0  0  0  0  0  0  0  0
  -10.3230   -2.5020  -22.2750 C   0  0  0  0  0  0  0  0  0  0  0  0
  -11.6430   -2.8910  -22.4650 C   0  0  0  0  0  0  0  0  0  0  0  0
  -12.8220   -2.7460  -21.1880 Cl  0  0  0  0  0  0  0  0  0  0  0  0
  -12.0660   -3.4420  -23.6680 C   0  0  0  0  0  0  0  0  0  0  0  0
  -11.1670   -3.5580  -24.7110 C   0  0  0  0  0  0  0  0  0  0  0  0
   -9.8250   -3.2150  -24.5190 C   0  0  0  0  0  0  0  0  0  0  0  0
   -8.8720   -3.4650  -25.6390 C   0  0  0  0  0  0  0  0  0  0  0  0
   -9.2470   -3.8010  -26.7600 O   0  0  0  0  0  0  0  0  0  0  0  0
  -11.4690   -3.9300  -25.6870 H   0  0  0  0  0  0  0  0  0  0  0  0
  -13.0950   -3.7830  -23.7550 H   0  0  0  0  0  0  0  0  0  0  0  0
  -10.0440   -2.0350  -21.3370 H   0  0  0  0  0  0  0  0  0  0  0  0
   -6.0170   -2.6740  -24.0900 H   0  0  0  0  0  0  0  0  0  0  0  0
   -7.1670   -1.4220  -24.5210 H   0  0  0  0  0  0  0  0  0  0  0  0
   -7.0040   -4.6010  -26.9040 H   0  0  0  0  0  0  0  0  0  0  0  0
   -5.6680   -3.9870  -25.9120 H   0  0  0  0  0  0  0  0  0  0  0  0
   -7.8560   -3.2330  -28.5970 H   0  0  0  0  0  0  0  0  0  0  0  0
   -5.8750   -1.4430  -29.7680 H   0  0  0  0  0  0  0  0  0  0  0  0
   -7.5310   -1.7010  -30.3400 H   0  0  0  0  0  0  0  0  0  0  0  0
   -7.1990   -0.5880  -28.9920 H   0  0  0  0  0  0  0  0  0  0  0  0
  1  2  1  0  0  0  0
  1 58  1  0  0  0  0
  1 59  1  0  0  0  0
  1 60  1  0  0  0  0
  2  3  1  0  0  0  0
  2 57  1  0  0  0  0
  3  4  2  0  0  0  0
  3  5  1  0  0  0  0
  5  6  1  0  0  0  0
  5 55  1  0  0  0  0
  5 56  1  0  0  0  0
  6  7  1  0  0  0  0
  6 48  1  0  0  0  0
  7  8  1  0  0  0  0
  7 53  1  0  0  0  0
  7 54  1  0  0  0  0
  8  9  1  1  0  0  0
  8 29  1  0  0  0  0
  8 41  1  0  0  0  0
  9 10  2  0  0  0  0
  9 11  1  0  0  0  0
 11 12  1  0  0  0  0
 11 28  1  0  0  0  0
 12 13  2  0  0  0  0
 12 21  1  0  0  0  0
 13 14  1  0  0  0  0
 13 27  1  0  0  0  0
 14 15  2  0  0  0  0
 15 16  1  0  0  0  0
 15 26  1  0  0  0  0
 16 17  2  0  0  0  0
 16 21  1  0  0  0  0
 17 18  1  0  0  0  0
 17 25  1  0  0  0  0
 18 19  2  0  0  0  0
 18 24  1  0  0  0  0
 19 20  1  0  0  0  0
 19 23  1  0  0  0  0
 20 21  2  0  0  0  0
 20 22  1  0  0  0  0
 28 29  1  0  0  0  0
 28 39  1  0  0  0  0
 28 40  1  0  0  0  0
 29 30  1  0  0  0  0
 29 38  1  1  0  0  0
 30 31  1  0  0  0  0
 30 36  1  0  0  0  0
 30 37  1  0  0  0  0
 31 32  1  0  0  0  0
 32 33  1  0  0  0  0
 32 34  1  0  0  0  0
 32 35  1  0  0  0  0
 41 42  2  0  0  0  0
 41 47  1  0  0  0  0
 42 43  1  0  0  0  0
 42 52  1  0  0  0  0
 43 44  1  0  0  0  0
 43 45  2  0  0  0  0
 45 46  1  0  0  0  0
 45 51  1  0  0  0  0
 46 47  2  0  0  0  0
 46 50  1  0  0  0  0
 47 48  1  0  0  0  0
 48 49  2  0  0  0  0
M  END
>  <MODEL>
       1

$$$$
best_conformers_44.pdb
 OpenBabel01292518153D

 60 64  0  0  1  0  0  0  0  0999 V2000
   -6.4680   -1.7910  -29.4500 C   0  0  0  0  0  0  0  0  0  0  0  0
   -6.7920   -2.7870  -28.4480 N   0  0  0  0  0  0  0  0  0  0  0  0
   -6.1410   -2.7440  -27.2540 C   0  0  0  0  0  0  0  0  0  0  0  0
   -5.2990   -1.9080  -26.9780 O   0  0  0  0  0  0  0  0  0  0  0  0
   -6.5670   -3.8430  -26.2760 C   0  0  0  0  0  0  0  0  0  0  0  0
   -7.5060   -3.3350  -25.2970 N   0  0  0  0  0  0  0  0  0  0  0  0
   -7.0140   -2.4920  -24.2180 C   0  0  0  0  0  0  0  0  0  0  0  0
   -7.8370   -2.7080  -22.9270 C   0  0  2  0  0  0  0  0  0  0  0  0
   -7.4730   -1.5600  -21.9860 C   0  0  0  0  0  0  0  0  0  0  0  0
   -7.7650   -0.3870  -22.1080 O   0  0  0  0  0  0  0  0  0  0  0  0
   -6.7070   -2.0570  -20.9570 N   0  0  0  0  0  0  0  0  0  0  0  0
   -6.1340   -1.2090  -19.9940 C   0  0  0  0  0  0  0  0  0  0  0  0
   -6.5290   -1.3240  -18.6880 C   0  0  0  0  0  0  0  0  0  0  0  0
   -6.0540   -0.5580  -17.6780 N   0  0  0  0  0  0  0  0  0  0  0  0
   -5.1420    0.3330  -17.9970 C   0  0  0  0  0  0  0  0  0  0  0  0
   -4.6330    0.5330  -19.3130 C   0  0  0  0  0  0  0  0  0  0  0  0
   -3.6400    1.5070  -19.5930 C   0  0  0  0  0  0  0  0  0  0  0  0
   -3.1480    1.6550  -20.8600 C   0  0  0  0  0  0  0  0  0  0  0  0
   -3.6270    0.8410  -21.9120 C   0  0  0  0  0  0  0  0  0  0  0  0
   -4.5970   -0.0970  -21.6740 C   0  0  0  0  0  0  0  0  0  0  0  0
   -5.1320   -0.2640  -20.3620 C   0  0  0  0  0  0  0  0  0  0  0  0
   -4.9700   -0.7040  -22.4960 H   0  0  0  0  0  0  0  0  0  0  0  0
   -3.2290    0.9700  -22.9150 H   0  0  0  0  0  0  0  0  0  0  0  0
   -2.3880    2.4020  -21.0660 H   0  0  0  0  0  0  0  0  0  0  0  0
   -3.2910    2.1280  -18.7730 H   0  0  0  0  0  0  0  0  0  0  0  0
   -4.7540    0.9540  -17.1910 H   0  0  0  0  0  0  0  0  0  0  0  0
   -7.2900   -2.0590  -18.4260 H   0  0  0  0  0  0  0  0  0  0  0  0
   -6.3360   -3.4470  -21.1070 C   0  0  0  0  0  0  0  0  0  0  0  0
   -7.4130   -3.9550  -22.0640 C   0  0  2  0  0  0  0  0  0  0  0  0
   -6.9790   -5.2160  -22.7830 C   0  0  0  0  0  0  0  0  0  0  0  0
   -8.0590   -5.6960  -23.5360 O   0  0  0  0  0  0  0  0  0  0  0  0
   -7.7160   -6.8280  -24.2890 C   0  0  0  0  0  0  0  0  0  0  0  0
   -8.5930   -7.0930  -24.8840 H   0  0  0  0  0  0  0  0  0  0  0  0
   -6.8730   -6.6220  -24.9700 H   0  0  0  0  0  0  0  0  0  0  0  0
   -7.4410   -7.6840  -23.6510 H   0  0  0  0  0  0  0  0  0  0  0  0
   -6.6520   -5.9690  -22.0420 H   0  0  0  0  0  0  0  0  0  0  0  0
   -6.1080   -5.0060  -23.4260 H   0  0  0  0  0  0  0  0  0  0  0  0
   -8.3070   -4.2000  -21.4830 H   0  0  0  0  0  0  0  0  0  0  0  0
   -5.3210   -3.5600  -21.5310 H   0  0  0  0  0  0  0  0  0  0  0  0
   -6.3410   -3.9580  -20.1380 H   0  0  0  0  0  0  0  0  0  0  0  0
   -9.3190   -2.7220  -23.2580 C   0  0  0  0  0  0  0  0  0  0  0  0
  -10.2580   -2.4870  -22.2430 C   0  0  0  0  0  0  0  0  0  0  0  0
  -11.5750   -2.8560  -22.4330 C   0  0  0  0  0  0  0  0  0  0  0  0
  -12.7260   -2.8350  -21.1360 Cl  0  0  0  0  0  0  0  0  0  0  0  0
  -12.0150   -3.3310  -23.6620 C   0  0  0  0  0  0  0  0  0  0  0  0
  -11.1260   -3.4160  -24.7110 C   0  0  0  0  0  0  0  0  0  0  0  0
   -9.7820   -3.1230  -24.5140 C   0  0  0  0  0  0  0  0  0  0  0  0
   -8.8290   -3.3730  -25.6350 C   0  0  0  0  0  0  0  0  0  0  0  0
   -9.2050   -3.6440  -26.7780 O   0  0  0  0  0  0  0  0  0  0  0  0
  -11.4510   -3.7330  -25.6960 H   0  0  0  0  0  0  0  0  0  0  0  0
  -13.0450   -3.6420  -23.7680 H   0  0  0  0  0  0  0  0  0  0  0  0
   -9.9590   -2.0780  -21.2890 H   0  0  0  0  0  0  0  0  0  0  0  0
   -5.9480   -2.7150  -24.0420 H   0  0  0  0  0  0  0  0  0  0  0  0
   -7.0810   -1.4180  -24.4740 H   0  0  0  0  0  0  0  0  0  0  0  0
   -7.0510   -4.6630  -26.8170 H   0  0  0  0  0  0  0  0  0  0  0  0
   -5.6800   -4.2290  -25.7620 H   0  0  0  0  0  0  0  0  0  0  0  0
   -7.7120   -3.2080  -28.4550 H   0  0  0  0  0  0  0  0  0  0  0  0
   -6.6690   -0.7760  -29.0860 H   0  0  0  0  0  0  0  0  0  0  0  0
   -5.4030   -1.8530  -29.6940 H   0  0  0  0  0  0  0  0  0  0  0  0
   -7.0540   -1.9860  -30.3510 H   0  0  0  0  0  0  0  0  0  0  0  0
  1  2  1  0  0  0  0
  1 58  1  0  0  0  0
  1 59  1  0  0  0  0
  1 60  1  0  0  0  0
  2  3  1  0  0  0  0
  2 57  1  0  0  0  0
  3  4  2  0  0  0  0
  3  5  1  0  0  0  0
  5  6  1  0  0  0  0
  5 55  1  0  0  0  0
  5 56  1  0  0  0  0
  6  7  1  0  0  0  0
  6 48  1  0  0  0  0
  7  8  1  0  0  0  0
  7 53  1  0  0  0  0
  7 54  1  0  0  0  0
  8  9  1  1  0  0  0
  8 29  1  0  0  0  0
  8 41  1  0  0  0  0
  9 10  2  0  0  0  0
  9 11  1  0  0  0  0
 11 12  1  0  0  0  0
 11 28  1  0  0  0  0
 12 13  2  0  0  0  0
 12 21  1  0  0  0  0
 13 14  1  0  0  0  0
 13 27  1  0  0  0  0
 14 15  2  0  0  0  0
 15 16  1  0  0  0  0
 15 26  1  0  0  0  0
 16 17  2  0  0  0  0
 16 21  1  0  0  0  0
 17 18  1  0  0  0  0
 17 25  1  0  0  0  0
 18 19  2  0  0  0  0
 18 24  1  0  0  0  0
 19 20  1  0  0  0  0
 19 23  1  0  0  0  0
 20 21  2  0  0  0  0
 20 22  1  0  0  0  0
 28 29  1  0  0  0  0
 28 39  1  0  0  0  0
 28 40  1  0  0  0  0
 29 30  1  0  0  0  0
 29 38  1  1  0  0  0
 30 31  1  0  0  0  0
 30 36  1  0  0  0  0
 30 37  1  0  0  0  0
 31 32  1  0  0  0  0
 32 33  1  0  0  0  0
 32 34  1  0  0  0  0
 32 35  1  0  0  0  0
 41 42  2  0  0  0  0
 41 47  1  0  0  0  0
 42 43  1  0  0  0  0
 42 52  1  0  0  0  0
 43 44  1  0  0  0  0
 43 45  2  0  0  0  0
 45 46  1  0  0  0  0
 45 51  1  0  0  0  0
 46 47  2  0  0  0  0
 46 50  1  0  0  0  0
 47 48  1  0  0  0  0
 48 49  2  0  0  0  0
M  END
>  <MODEL>
       2

$$$$
best_conformers_44.pdb
 OpenBabel01292518153D

 60 64  0  0  1  0  0  0  0  0999 V2000
   -6.0780   -7.3640  -25.9560 C   0  0  0  0  0  0  0  0  0  0  0  0
   -6.6120   -6.0710  -26.3420 N   0  0  0  0  0  0  0  0  0  0  0  0
   -5.8810   -4.9560  -26.0880 C   0  0  0  0  0  0  0  0  0  0  0  0
   -4.7570   -5.0030  -25.6070 O   0  0  0  0  0  0  0  0  0  0  0  0
   -6.5840   -3.6340  -26.4010 C   0  0  0  0  0  0  0  0  0  0  0  0
   -7.5320   -3.2590  -25.3650 N   0  0  0  0  0  0  0  0  0  0  0  0
   -7.0800   -2.4170  -24.2660 C   0  0  0  0  0  0  0  0  0  0  0  0
   -7.8670   -2.6590  -22.9530 C   0  0  2  0  0  0  0  0  0  0  0  0
   -7.5300   -1.5090  -21.9990 C   0  0  0  0  0  0  0  0  0  0  0  0
   -7.8370   -0.3340  -22.1050 O   0  0  0  0  0  0  0  0  0  0  0  0
   -6.7780   -2.0150  -20.9690 N   0  0  0  0  0  0  0  0  0  0  0  0
   -6.1670   -1.1830  -20.0120 C   0  0  0  0  0  0  0  0  0  0  0  0
   -6.5370   -1.3090  -18.6990 C   0  0  0  0  0  0  0  0  0  0  0  0
   -6.0490   -0.5520  -17.6890 N   0  0  0  0  0  0  0  0  0  0  0  0
   -5.1370    0.3370  -18.0130 C   0  0  0  0  0  0  0  0  0  0  0  0
   -4.6380    0.5340  -19.3340 C   0  0  0  0  0  0  0  0  0  0  0  0
   -3.6380    1.4990  -19.6150 C   0  0  0  0  0  0  0  0  0  0  0  0
   -3.1520    1.6490  -20.8840 C   0  0  0  0  0  0  0  0  0  0  0  0
   -3.6370    0.8420  -21.9370 C   0  0  0  0  0  0  0  0  0  0  0  0
   -4.6100   -0.0920  -21.6960 C   0  0  0  0  0  0  0  0  0  0  0  0
   -5.1490   -0.2550  -20.3830 C   0  0  0  0  0  0  0  0  0  0  0  0
   -4.9750   -0.7000  -22.5200 H   0  0  0  0  0  0  0  0  0  0  0  0
   -3.2380    0.9660  -22.9400 H   0  0  0  0  0  0  0  0  0  0  0  0
   -2.3880    2.3920  -21.0930 H   0  0  0  0  0  0  0  0  0  0  0  0
   -3.2750    2.1130  -18.7970 H   0  0  0  0  0  0  0  0  0  0  0  0
   -4.7250    0.9490  -17.2110 H   0  0  0  0  0  0  0  0  0  0  0  0
   -7.2960   -2.0450  -18.4350 H   0  0  0  0  0  0  0  0  0  0  0  0
   -6.4000   -3.4030  -21.1230 C   0  0  0  0  0  0  0  0  0  0  0  0
   -7.4060   -3.9240  -22.1480 C   0  0  2  0  0  0  0  0  0  0  0  0
   -6.8500   -5.0710  -22.9840 C   0  0  0  0  0  0  0  0  0  0  0  0
   -6.4180   -6.1450  -22.1700 O   0  0  0  0  0  0  0  0  0  0  0  0
   -7.4410   -7.0720  -21.9290 C   0  0  0  0  0  0  0  0  0  0  0  0
   -8.3850   -6.5840  -21.6400 H   0  0  0  0  0  0  0  0  0  0  0  0
   -7.6520   -7.7070  -22.8100 H   0  0  0  0  0  0  0  0  0  0  0  0
   -7.1230   -7.7170  -21.1050 H   0  0  0  0  0  0  0  0  0  0  0  0
   -7.6170   -5.3930  -23.7030 H   0  0  0  0  0  0  0  0  0  0  0  0
   -5.9660   -4.7280  -23.5240 H   0  0  0  0  0  0  0  0  0  0  0  0
   -8.2890   -4.2820  -21.6020 H   0  0  0  0  0  0  0  0  0  0  0  0
   -6.4490   -3.9100  -20.1590 H   0  0  0  0  0  0  0  0  0  0  0  0
   -5.3650   -3.4920  -21.4830 H   0  0  0  0  0  0  0  0  0  0  0  0
   -9.3440   -2.7110  -23.2620 C   0  0  0  0  0  0  0  0  0  0  0  0
  -10.2930   -2.4690  -22.2620 C   0  0  0  0  0  0  0  0  0  0  0  0
  -11.6210   -2.7980  -22.4870 C   0  0  0  0  0  0  0  0  0  0  0  0
  -12.8170   -2.6750  -21.2420 Cl  0  0  0  0  0  0  0  0  0  0  0  0
  -12.0530   -3.3160  -23.7020 C   0  0  0  0  0  0  0  0  0  0  0  0
  -11.1350   -3.4530  -24.7170 C   0  0  0  0  0  0  0  0  0  0  0  0
   -9.7910   -3.1780  -24.4960 C   0  0  0  0  0  0  0  0  0  0  0  0
   -8.8450   -3.5530  -25.5810 C   0  0  0  0  0  0  0  0  0  0  0  0
   -9.2220   -4.1470  -26.5870 O   0  0  0  0  0  0  0  0  0  0  0  0
  -11.4250   -3.8090  -25.6960 H   0  0  0  0  0  0  0  0  0  0  0  0
  -13.0810   -3.6550  -23.8030 H   0  0  0  0  0  0  0  0  0  0  0  0
   -9.9700   -2.0640  -21.3110 H   0  0  0  0  0  0  0  0  0  0  0  0
   -6.0100   -2.6050  -24.1080 H   0  0  0  0  0  0  0  0  0  0  0  0
   -7.1730   -1.3600  -24.5440 H   0  0  0  0  0  0  0  0  0  0  0  0
   -7.1420   -3.7340  -27.3350 H   0  0  0  0  0  0  0  0  0  0  0  0
   -5.8290   -2.8530  -26.4960 H   0  0  0  0  0  0  0  0  0  0  0  0
   -7.5630   -5.9930  -26.6750 H   0  0  0  0  0  0  0  0  0  0  0  0
   -6.8100   -8.1480  -26.1580 H   0  0  0  0  0  0  0  0  0  0  0  0
   -5.8290   -7.3720  -24.8870 H   0  0  0  0  0  0  0  0  0  0  0  0
   -5.1700   -7.5840  -26.5240 H   0  0  0  0  0  0  0  0  0  0  0  0
  1  2  1  0  0  0  0
  1 58  1  0  0  0  0
  1 59  1  0  0  0  0
  1 60  1  0  0  0  0
  2  3  1  0  0  0  0
  2 57  1  0  0  0  0
  3  4  2  0  0  0  0
  3  5  1  0  0  0  0
  5  6  1  0  0  0  0
  5 55  1  0  0  0  0
  5 56  1  0  0  0  0
  6  7  1  0  0  0  0
  6 48  1  0  0  0  0
  7  8  1  0  0  0  0
  7 53  1  0  0  0  0
  7 54  1  0  0  0  0
  8  9  1  1  0  0  0
  8 29  1  0  0  0  0
  8 41  1  0  0  0  0
  9 10  2  0  0  0  0
  9 11  1  0  0  0  0
 11 12  1  0  0  0  0
 11 28  1  0  0  0  0
 12 13  2  0  0  0  0
 12 21  1  0  0  0  0
 13 14  1  0  0  0  0
 13 27  1  0  0  0  0
 14 15  2  0  0  0  0
 15 16  1  0  0  0  0
 15 26  1  0  0  0  0
 16 17  2  0  0  0  0
 16 21  1  0  0  0  0
 17 18  1  0  0  0  0
 17 25  1  0  0  0  0
 18 19  2  0  0  0  0
 18 24  1  0  0  0  0
 19 20  1  0  0  0  0
 19 23  1  0  0  0  0
 20 21  2  0  0  0  0
 20 22  1  0  0  0  0
 28 29  1  0  0  0  0
 28 39  1  0  0  0  0
 28 40  1  0  0  0  0
 29 30  1  0  0  0  0
 29 38  1  1  0  0  0
 30 31  1  0  0  0  0
 30 36  1  0  0  0  0
 30 37  1  0  0  0  0
 31 32  1  0  0  0  0
 32 33  1  0  0  0  0
 32 34  1  0  0  0  0
 32 35  1  0  0  0  0
 41 42  2  0  0  0  0
 41 47  1  0  0  0  0
 42 43  1  0  0  0  0
 42 52  1  0  0  0  0
 43 44  1  0  0  0  0
 43 45  2  0  0  0  0
 45 46  1  0  0  0  0
 45 51  1  0  0  0  0
 46 47  2  0  0  0  0
 46 50  1  0  0  0  0
 47 48  1  0  0  0  0
 48 49  2  0  0  0  0
M  END
>  <MODEL>
       3

$$$$
best_conformers_44.pdb
 OpenBabel01292518153D

 60 64  0  0  1  0  0  0  0  0999 V2000
   -6.4180   -1.9070  -29.4910 C   0  0  0  0  0  0  0  0  0  0  0  0
   -6.7530   -2.9330  -28.5280 N   0  0  0  0  0  0  0  0  0  0  0  0
   -6.1860   -2.8150  -27.2990 C   0  0  0  0  0  0  0  0  0  0  0  0
   -5.4030   -1.9160  -27.0210 O   0  0  0  0  0  0  0  0  0  0  0  0
   -6.5790   -3.8690  -26.2750 C   0  0  0  0  0  0  0  0  0  0  0  0
   -7.5290   -3.3110  -25.3290 N   0  0  0  0  0  0  0  0  0  0  0  0
   -7.0700   -2.4040  -24.2850 C   0  0  0  0  0  0  0  0  0  0  0  0
   -7.8540   -2.6400  -22.9730 C   0  0  2  0  0  0  0  0  0  0  0  0
   -7.5090   -1.5040  -22.0130 C   0  0  0  0  0  0  0  0  0  0  0  0
   -7.8020   -0.3340  -22.1410 O   0  0  0  0  0  0  0  0  0  0  0  0
   -6.7580   -2.0140  -20.9780 N   0  0  0  0  0  0  0  0  0  0  0  0
   -6.1610   -1.1820  -20.0130 C   0  0  0  0  0  0  0  0  0  0  0  0
   -6.5330   -1.3060  -18.7020 C   0  0  0  0  0  0  0  0  0  0  0  0
   -6.0470   -0.5520  -17.6890 N   0  0  0  0  0  0  0  0  0  0  0  0
   -5.1340    0.3400  -18.0040 C   0  0  0  0  0  0  0  0  0  0  0  0
   -4.6330    0.5400  -19.3230 C   0  0  0  0  0  0  0  0  0  0  0  0
   -3.6370    1.5110  -19.6030 C   0  0  0  0  0  0  0  0  0  0  0  0
   -3.1510    1.6580  -20.8710 C   0  0  0  0  0  0  0  0  0  0  0  0
   -3.6320    0.8460  -21.9230 C   0  0  0  0  0  0  0  0  0  0  0  0
   -4.6030   -0.0900  -21.6820 C   0  0  0  0  0  0  0  0  0  0  0  0
   -5.1410   -0.2530  -20.3720 C   0  0  0  0  0  0  0  0  0  0  0  0
   -4.9720   -0.7000  -22.5020 H   0  0  0  0  0  0  0  0  0  0  0  0
   -3.2290    0.9680  -22.9240 H   0  0  0  0  0  0  0  0  0  0  0  0
   -2.3820    2.3970  -21.0810 H   0  0  0  0  0  0  0  0  0  0  0  0
   -3.2720    2.1270  -18.7860 H   0  0  0  0  0  0  0  0  0  0  0  0
   -4.7330    0.9540  -17.1970 H   0  0  0  0  0  0  0  0  0  0  0  0
   -7.2930   -2.0420  -18.4410 H   0  0  0  0  0  0  0  0  0  0  0  0
   -6.3750   -3.4000  -21.1370 C   0  0  0  0  0  0  0  0  0  0  0  0
   -7.4000   -3.9010  -22.1560 C   0  0  2  0  0  0  0  0  0  0  0  0
   -6.8870   -5.0910  -22.9620 C   0  0  0  0  0  0  0  0  0  0  0  0
   -6.4340   -6.1300  -22.1210 O   0  0  0  0  0  0  0  0  0  0  0  0
   -7.4650   -6.9990  -21.7420 C   0  0  0  0  0  0  0  0  0  0  0  0
   -7.7400   -7.6800  -22.5640 H   0  0  0  0  0  0  0  0  0  0  0  0
   -7.1050   -7.5710  -20.8830 H   0  0  0  0  0  0  0  0  0  0  0  0
   -8.3720   -6.4500  -21.4540 H   0  0  0  0  0  0  0  0  0  0  0  0
   -6.0140   -4.7800  -23.5470 H   0  0  0  0  0  0  0  0  0  0  0  0
   -7.6710   -5.4590  -23.6390 H   0  0  0  0  0  0  0  0  0  0  0  0
   -8.2770   -4.2180  -21.5770 H   0  0  0  0  0  0  0  0  0  0  0  0
   -6.4290   -3.9170  -20.1760 H   0  0  0  0  0  0  0  0  0  0  0  0
   -5.3410   -3.4970  -21.5020 H   0  0  0  0  0  0  0  0  0  0  0  0
   -9.3420   -2.6760  -23.2900 C   0  0  0  0  0  0  0  0  0  0  0  0
  -10.2900   -2.4400  -22.2800 C   0  0  0  0  0  0  0  0  0  0  0  0
  -11.6160   -2.7900  -22.4790 C   0  0  0  0  0  0  0  0  0  0  0  0
  -12.7880   -2.6650  -21.1990 Cl  0  0  0  0  0  0  0  0  0  0  0  0
  -12.0550   -3.3180  -23.6880 C   0  0  0  0  0  0  0  0  0  0  0  0
  -11.1500   -3.4310  -24.7270 C   0  0  0  0  0  0  0  0  0  0  0  0
   -9.8060   -3.1180  -24.5330 C   0  0  0  0  0  0  0  0  0  0  0  0
   -8.8550   -3.4180  -25.6430 C   0  0  0  0  0  0  0  0  0  0  0  0
   -9.2430   -3.7940  -26.7460 O   0  0  0  0  0  0  0  0  0  0  0  0
  -11.4510   -3.7830  -25.7060 H   0  0  0  0  0  0  0  0  0  0  0  0
  -13.0880   -3.6420  -23.7650 H   0  0  0  0  0  0  0  0  0  0  0  0
   -9.9910   -2.0240  -21.3240 H   0  0  0  0  0  0  0  0  0  0  0  0
   -7.1860   -1.3530  -24.5840 H   0  0  0  0  0  0  0  0  0  0  0  0
   -5.9900   -2.5270  -24.1470 H   0  0  0  0  0  0  0  0  0  0  0  0
   -5.6820   -4.1990  -25.7390 H   0  0  0  0  0  0  0  0  0  0  0  0
   -7.0220   -4.7450  -26.7580 H   0  0  0  0  0  0  0  0  0  0  0  0
   -7.6580   -3.3850  -28.5940 H   0  0  0  0  0  0  0  0  0  0  0  0
   -6.9470   -2.0900  -30.4230 H   0  0  0  0  0  0  0  0  0  0  0  0
   -5.3410   -1.9390  -29.6840 H   0  0  0  0  0  0  0  0  0  0  0  0
   -6.6850   -0.9160  -29.1080 H   0  0  0  0  0  0  0  0  0  0  0  0
  1  2  1  0  0  0  0
  1 58  1  0  0  0  0
  1 59  1  0  0  0  0
  1 60  1  0  0  0  0
  2  3  1  0  0  0  0
  2 57  1  0  0  0  0
  3  4  2  0  0  0  0
  3  5  1  0  0  0  0
  5  6  1  0  0  0  0
  5 55  1  0  0  0  0
  5 56  1  0  0  0  0
  6  7  1  0  0  0  0
  6 48  1  0  0  0  0
  7  8  1  0  0  0  0
  7 53  1  0  0  0  0
  7 54  1  0  0  0  0
  8  9  1  1  0  0  0
  8 29  1  0  0  0  0
  8 41  1  0  0  0  0
  9 10  2  0  0  0  0
  9 11  1  0  0  0  0
 11 12  1  0  0  0  0
 11 28  1  0  0  0  0
 12 13  2  0  0  0  0
 12 21  1  0  0  0  0
 13 14  1  0  0  0  0
 13 27  1  0  0  0  0
 14 15  2  0  0  0  0
 15 16  1  0  0  0  0
 15 26  1  0  0  0  0
 16 17  2  0  0  0  0
 16 21  1  0  0  0  0
 17 18  1  0  0  0  0
 17 25  1  0  0  0  0
 18 19  2  0  0  0  0
 18 24  1  0  0  0  0
 19 20  1  0  0  0  0
 19 23  1  0  0  0  0
 20 21  2  0  0  0  0
 20 22  1  0  0  0  0
 28 29  1  0  0  0  0
 28 39  1  0  0  0  0
 28 40  1  0  0  0  0
 29 30  1  0  0  0  0
 29 38  1  1  0  0  0
 30 31  1  0  0  0  0
 30 36  1  0  0  0  0
 30 37  1  0  0  0  0
 31 32  1  0  0  0  0
 32 33  1  0  0  0  0
 32 34  1  0  0  0  0
 32 35  1  0  0  0  0
 41 42  2  0  0  0  0
 41 47  1  0  0  0  0
 42 43  1  0  0  0  0
 42 52  1  0  0  0  0
 43 44  1  0  0  0  0
 43 45  2  0  0  0  0
 45 46  1  0  0  0  0
 45 51  1  0  0  0  0
 46 47  2  0  0  0  0
 46 50  1  0  0  0  0
 47 48  1  0  0  0  0
 48 49  2  0  0  0  0
M  END
>  <MODEL>
       4

$$$$
