best_conformers_17.pdb
 OpenBabel01292518153D

 38 41  0  0  1  0  0  0  0  0999 V2000
   -7.7250   -6.5130  -24.9410 C   0  0  0  0  0  0  0  0  0  0  0  0
   -7.9590   -5.5850  -23.7490 C   0  0  2  0  0  0  0  0  0  0  0  0
   -9.1210   -4.6210  -24.0150 C   0  0  0  0  0  0  0  0  0  0  0  0
   -9.4310   -3.7530  -22.7960 C   0  0  0  0  0  0  0  0  0  0  0  0
   -8.2090   -3.2130  -22.2090 C   0  0  0  0  0  0  0  0  0  0  0  0
   -8.1000   -2.1670  -21.2450 C   0  0  0  0  0  0  0  0  0  0  0  0
   -8.9670   -1.4660  -20.7620 O   0  5  0  0  0  0  0  0  0  0  0  0
   -6.7180   -2.0850  -20.9550 N   0  0  0  0  0  0  0  0  0  0  0  0
   -6.1340   -1.2130  -19.9900 C   0  0  0  0  0  0  0  0  0  0  0  0
   -6.5170   -1.2840  -18.6750 C   0  0  0  0  0  0  0  0  0  0  0  0
   -6.0110   -0.5120  -17.6770 N   0  0  0  0  0  0  0  0  0  0  0  0
   -5.0920    0.3690  -18.0020 C   0  0  0  0  0  0  0  0  0  0  0  0
   -4.6030    0.5570  -19.3260 C   0  0  0  0  0  0  0  0  0  0  0  0
   -3.6100    1.5290  -19.6350 C   0  0  0  0  0  0  0  0  0  0  0  0
   -3.1870    1.6920  -20.9250 C   0  0  0  0  0  0  0  0  0  0  0  0
   -3.7330    0.9050  -21.9620 C   0  0  0  0  0  0  0  0  0  0  0  0
   -4.6930   -0.0360  -21.6910 C   0  0  0  0  0  0  0  0  0  0  0  0
   -5.1420   -0.2470  -20.3590 C   0  0  0  0  0  0  0  0  0  0  0  0
   -5.1210   -0.6270  -22.4950 H   0  0  0  0  0  0  0  0  0  0  0  0
   -3.3980    1.0540  -22.9830 H   0  0  0  0  0  0  0  0  0  0  0  0
   -2.4330    2.4360  -21.1670 H   0  0  0  0  0  0  0  0  0  0  0  0
   -3.2030    2.1440  -18.8350 H   0  0  0  0  0  0  0  0  0  0  0  0
   -4.6830    0.9950  -17.2050 H   0  0  0  0  0  0  0  0  0  0  0  0
   -7.2710   -2.0090  -18.3820 H   0  0  0  0  0  0  0  0  0  0  0  0
   -6.0140   -3.0670  -21.6720 C   0  0  0  0  0  0  0  0  0  0  0  0
   -4.8270   -3.2810  -21.6260 O   0  0  0  0  0  0  0  0  0  0  0  0
   -6.9780   -3.7400  -22.4210 N   0  0  0  0  0  0  0  0  0  0  0  0
   -6.6830   -4.8020  -23.3970 C   0  0  0  0  0  0  0  0  0  0  0  0
   -5.9210   -5.4760  -22.9850 H   0  0  0  0  0  0  0  0  0  0  0  0
   -6.2510   -4.3570  -24.3060 H   0  0  0  0  0  0  0  0  0  0  0  0
  -10.0970   -2.9270  -23.0570 H   0  0  0  0  0  0  0  0  0  0  0  0
   -9.9470   -4.3410  -22.0290 H   0  0  0  0  0  0  0  0  0  0  0  0
   -8.8670   -3.9710  -24.8620 H   0  0  0  0  0  0  0  0  0  0  0  0
  -10.0220   -5.1800  -24.2950 H   0  0  0  0  0  0  0  0  0  0  0  0
   -8.2210   -6.2120  -22.8840 H   0  0  0  0  0  0  0  0  0  0  0  0
   -8.6230   -7.1030  -25.1560 H   0  0  0  0  0  0  0  0  0  0  0  0
   -6.9040   -7.2100  -24.7460 H   0  0  0  0  0  0  0  0  0  0  0  0
   -7.4790   -5.9360  -25.8410 H   0  0  0  0  0  0  0  0  0  0  0  0
  1  2  1  0  0  0  0
  1 36  1  0  0  0  0
  1 37  1  0  0  0  0
  1 38  1  0  0  0  0
  2  3  1  0  0  0  0
  2 28  1  0  0  0  0
  2 35  1  1  0  0  0
  3  4  1  0  0  0  0
  3 33  1  0  0  0  0
  3 34  1  0  0  0  0
  4  5  1  0  0  0  0
  4 31  1  0  0  0  0
  4 32  1  0  0  0  0
  5  6  2  0  0  0  0
  5 27  1  0  0  0  0
  6  7  1  0  0  0  0
  6  8  1  0  0  0  0
  8  9  1  0  0  0  0
  8 25  1  0  0  0  0
  9 10  2  0  0  0  0
  9 18  1  0  0  0  0
 10 11  1  0  0  0  0
 10 24  1  0  0  0  0
 11 12  2  0  0  0  0
 12 13  1  0  0  0  0
 12 23  1  0  0  0  0
 13 14  2  0  0  0  0
 13 18  1  0  0  0  0
 14 15  1  0  0  0  0
 14 22  1  0  0  0  0
 15 16  2  0  0  0  0
 15 21  1  0  0  0  0
 16 17  1  0  0  0  0
 16 20  1  0  0  0  0
 17 18  2  0  0  0  0
 17 19  1  0  0  0  0
 25 26  2  0  0  0  0
 25 27  1  0  0  0  0
 27 28  1  0  0  0  0
 28 29  1  0  0  0  0
 28 30  1  0  0  0  0
M  CHG  1   7  -1
M  END
>  <MODEL>
       1

$$$$
best_conformers_17.pdb
 OpenBabel01292518153D

 38 41  0  0  1  0  0  0  0  0999 V2000
   -8.8820   -6.6720  -24.0590 C   0  0  0  0  0  0  0  0  0  0  0  0
   -8.8270   -5.2780  -23.4500 C   0  0  2  0  0  0  0  0  0  0  0  0
   -8.7520   -4.2080  -24.5350 C   0  0  0  0  0  0  0  0  0  0  0  0
   -8.8740   -2.8260  -23.8810 C   0  0  0  0  0  0  0  0  0  0  0  0
   -8.0080   -2.7240  -22.6990 C   0  0  0  0  0  0  0  0  0  0  0  0
   -7.5880   -1.5430  -22.0030 C   0  0  0  0  0  0  0  0  0  0  0  0
   -7.8190   -0.3740  -22.2140 O   0  5  0  0  0  0  0  0  0  0  0  0
   -6.7640   -2.0400  -20.9570 N   0  0  0  0  0  0  0  0  0  0  0  0
   -6.1310   -1.2330  -19.9870 C   0  0  0  0  0  0  0  0  0  0  0  0
   -6.5270   -1.3110  -18.6730 C   0  0  0  0  0  0  0  0  0  0  0  0
   -6.0450   -0.5230  -17.6790 N   0  0  0  0  0  0  0  0  0  0  0  0
   -5.1220    0.3500  -18.0080 C   0  0  0  0  0  0  0  0  0  0  0  0
   -4.6080    0.5160  -19.3270 C   0  0  0  0  0  0  0  0  0  0  0  0
   -3.6150    1.4890  -19.6180 C   0  0  0  0  0  0  0  0  0  0  0  0
   -3.1380    1.6370  -20.8910 C   0  0  0  0  0  0  0  0  0  0  0  0
   -3.6260    0.8170  -21.9340 C   0  0  0  0  0  0  0  0  0  0  0  0
   -4.5840   -0.1370  -21.6790 C   0  0  0  0  0  0  0  0  0  0  0  0
   -5.1140   -0.2990  -20.3620 C   0  0  0  0  0  0  0  0  0  0  0  0
   -4.9510   -0.7570  -22.4930 H   0  0  0  0  0  0  0  0  0  0  0  0
   -3.2520    0.9540  -22.9470 H   0  0  0  0  0  0  0  0  0  0  0  0
   -2.3890    2.3960  -21.1140 H   0  0  0  0  0  0  0  0  0  0  0  0
   -3.2620    2.1190  -18.8060 H   0  0  0  0  0  0  0  0  0  0  0  0
   -4.7240    0.9780  -17.2110 H   0  0  0  0  0  0  0  0  0  0  0  0
   -7.2860   -2.0310  -18.3820 H   0  0  0  0  0  0  0  0  0  0  0  0
   -6.6630   -3.4330  -21.0070 C   0  0  0  0  0  0  0  0  0  0  0  0
   -5.9940   -4.1520  -20.3010 O   0  0  0  0  0  0  0  0  0  0  0  0
   -7.4970   -3.8000  -22.0480 N   0  0  0  0  0  0  0  0  0  0  0  0
   -7.6920   -5.1800  -22.4400 C   0  0  0  0  0  0  0  0  0  0  0  0
   -7.9070   -5.7640  -21.5430 H   0  0  0  0  0  0  0  0  0  0  0  0
   -6.7620   -5.5650  -22.8630 H   0  0  0  0  0  0  0  0  0  0  0  0
   -8.6590   -2.0090  -24.5830 H   0  0  0  0  0  0  0  0  0  0  0  0
   -9.9210   -2.6950  -23.5660 H   0  0  0  0  0  0  0  0  0  0  0  0
   -7.8350   -4.3000  -25.1290 H   0  0  0  0  0  0  0  0  0  0  0  0
   -9.5840   -4.3750  -25.2330 H   0  0  0  0  0  0  0  0  0  0  0  0
   -9.7550   -5.0540  -22.9260 H   0  0  0  0  0  0  0  0  0  0  0  0
   -9.6330   -6.7300  -24.8610 H   0  0  0  0  0  0  0  0  0  0  0  0
   -9.1240   -7.4450  -23.3190 H   0  0  0  0  0  0  0  0  0  0  0  0
   -7.8920   -6.9000  -24.4750 H   0  0  0  0  0  0  0  0  0  0  0  0
  1  2  1  0  0  0  0
  1 36  1  0  0  0  0
  1 37  1  0  0  0  0
  1 38  1  0  0  0  0
  2  3  1  0  0  0  0
  2 28  1  0  0  0  0
  2 35  1  1  0  0  0
  3  4  1  0  0  0  0
  3 33  1  0  0  0  0
  3 34  1  0  0  0  0
  4  5  1  0  0  0  0
  4 31  1  0  0  0  0
  4 32  1  0  0  0  0
  5  6  2  0  0  0  0
  5 27  1  0  0  0  0
  6  7  1  0  0  0  0
  6  8  1  0  0  0  0
  8  9  1  0  0  0  0
  8 25  1  0  0  0  0
  9 10  2  0  0  0  0
  9 18  1  0  0  0  0
 10 11  1  0  0  0  0
 10 24  1  0  0  0  0
 11 12  2  0  0  0  0
 12 13  1  0  0  0  0
 12 23  1  0  0  0  0
 13 14  2  0  0  0  0
 13 18  1  0  0  0  0
 14 15  1  0  0  0  0
 14 22  1  0  0  0  0
 15 16  2  0  0  0  0
 15 21  1  0  0  0  0
 16 17  1  0  0  0  0
 16 20  1  0  0  0  0
 17 18  2  0  0  0  0
 17 19  1  0  0  0  0
 25 26  2  0  0  0  0
 25 27  1  0  0  0  0
 27 28  1  0  0  0  0
 28 29  1  0  0  0  0
 28 30  1  0  0  0  0
M  CHG  1   7  -1
M  END
>  <MODEL>
       2

$$$$
best_conformers_17.pdb
 OpenBabel01292518153D

 38 41  0  0  1  0  0  0  0  0999 V2000
  -10.7700   -4.0860  -23.2850 C   0  0  0  0  0  0  0  0  0  0  0  0
   -9.4770   -4.0540  -24.0940 C   0  0  2  0  0  0  0  0  0  0  0  0
   -8.5110   -5.2270  -23.8440 C   0  0  0  0  0  0  0  0  0  0  0  0
   -7.8990   -5.2320  -22.4330 C   0  0  0  0  0  0  0  0  0  0  0  0
   -7.5080   -3.8750  -22.0310 C   0  0  0  0  0  0  0  0  0  0  0  0
   -6.6810   -3.4440  -20.9390 C   0  0  0  0  0  0  0  0  0  0  0  0
   -6.0010   -4.0810  -20.1650 O   0  5  0  0  0  0  0  0  0  0  0  0
   -6.7780   -2.0290  -20.9570 N   0  0  0  0  0  0  0  0  0  0  0  0
   -6.1560   -1.1910  -20.0010 C   0  0  0  0  0  0  0  0  0  0  0  0
   -6.5310   -1.2920  -18.6840 C   0  0  0  0  0  0  0  0  0  0  0  0
   -6.0390   -0.5180  -17.6890 N   0  0  0  0  0  0  0  0  0  0  0  0
   -5.1160    0.3560  -18.0170 C   0  0  0  0  0  0  0  0  0  0  0  0
   -4.6050    0.5360  -19.3360 C   0  0  0  0  0  0  0  0  0  0  0  0
   -3.6060    1.5010  -19.6300 C   0  0  0  0  0  0  0  0  0  0  0  0
   -3.1370    1.6420  -20.9060 C   0  0  0  0  0  0  0  0  0  0  0  0
   -3.6370    0.8240  -21.9450 C   0  0  0  0  0  0  0  0  0  0  0  0
   -4.6040   -0.1160  -21.6880 C   0  0  0  0  0  0  0  0  0  0  0  0
   -5.1270   -0.2680  -20.3720 C   0  0  0  0  0  0  0  0  0  0  0  0
   -4.9910   -0.7340  -22.4940 H   0  0  0  0  0  0  0  0  0  0  0  0
   -3.2670    0.9530  -22.9570 H   0  0  0  0  0  0  0  0  0  0  0  0
   -2.3840    2.3910  -21.1310 H   0  0  0  0  0  0  0  0  0  0  0  0
   -3.2420    2.1240  -18.8170 H   0  0  0  0  0  0  0  0  0  0  0  0
   -4.7200    0.9690  -17.2100 H   0  0  0  0  0  0  0  0  0  0  0  0
   -7.2760   -2.0270  -18.3890 H   0  0  0  0  0  0  0  0  0  0  0  0
   -7.5810   -1.5950  -22.0190 C   0  0  0  0  0  0  0  0  0  0  0  0
   -7.8660   -0.4610  -22.3310 O   0  0  0  0  0  0  0  0  0  0  0  0
   -7.9750   -2.7630  -22.6540 N   0  0  0  0  0  0  0  0  0  0  0  0
   -8.7430   -2.7310  -23.8930 C   0  0  0  0  0  0  0  0  0  0  0  0
   -8.0680   -2.5070  -24.7320 H   0  0  0  0  0  0  0  0  0  0  0  0
   -9.4530   -1.9030  -23.7930 H   0  0  0  0  0  0  0  0  0  0  0  0
   -8.6160   -5.6490  -21.7130 H   0  0  0  0  0  0  0  0  0  0  0  0
   -7.0170   -5.8790  -22.3710 H   0  0  0  0  0  0  0  0  0  0  0  0
   -9.0170   -6.1790  -24.0350 H   0  0  0  0  0  0  0  0  0  0  0  0
   -7.7000   -5.1540  -24.5790 H   0  0  0  0  0  0  0  0  0  0  0  0
   -9.7670   -4.0930  -25.1480 H   0  0  0  0  0  0  0  0  0  0  0  0
  -11.3520   -4.9610  -23.5710 H   0  0  0  0  0  0  0  0  0  0  0  0
  -10.5860   -4.0990  -22.2090 H   0  0  0  0  0  0  0  0  0  0  0  0
  -11.3740   -3.1970  -23.4880 H   0  0  0  0  0  0  0  0  0  0  0  0
  1  2  1  0  0  0  0
  1 36  1  0  0  0  0
  1 37  1  0  0  0  0
  1 38  1  0  0  0  0
  2  3  1  0  0  0  0
  2 28  1  0  0  0  0
  2 35  1  6  0  0  0
  3  4  1  0  0  0  0
  3 33  1  0  0  0  0
  3 34  1  0  0  0  0
  4  5  1  0  0  0  0
  4 31  1  0  0  0  0
  4 32  1  0  0  0  0
  5  6  2  0  0  0  0
  5 27  1  0  0  0  0
  6  7  1  0  0  0  0
  6  8  1  0  0  0  0
  8  9  1  0  0  0  0
  8 25  1  0  0  0  0
  9 10  2  0  0  0  0
  9 18  1  0  0  0  0
 10 11  1  0  0  0  0
 10 24  1  0  0  0  0
 11 12  2  0  0  0  0
 12 13  1  0  0  0  0
 12 23  1  0  0  0  0
 13 14  2  0  0  0  0
 13 18  1  0  0  0  0
 14 15  1  0  0  0  0
 14 22  1  0  0  0  0
 15 16  2  0  0  0  0
 15 21  1  0  0  0  0
 16 17  1  0  0  0  0
 16 20  1  0  0  0  0
 17 18  2  0  0  0  0
 17 19  1  0  0  0  0
 25 26  2  0  0  0  0
 25 27  1  0  0  0  0
 27 28  1  0  0  0  0
 28 29  1  0  0  0  0
 28 30  1  0  0  0  0
M  CHG  1   7  -1
M  END
>  <MODEL>
       3

$$$$
best_conformers_17.pdb
 OpenBabel01292518153D

 38 41  0  0  1  0  0  0  0  0999 V2000
  -10.0820   -4.2270  -25.4970 C   0  0  0  0  0  0  0  0  0  0  0  0
   -8.9150   -4.1210  -24.5100 C   0  0  2  0  0  0  0  0  0  0  0  0
   -9.0180   -5.2200  -23.4650 C   0  0  0  0  0  0  0  0  0  0  0  0
   -7.8420   -5.2140  -22.4820 C   0  0  0  0  0  0  0  0  0  0  0  0
   -7.5600   -3.8560  -22.0120 C   0  0  0  0  0  0  0  0  0  0  0  0
   -6.7280   -3.4510  -20.9160 C   0  0  0  0  0  0  0  0  0  0  0  0
   -6.0970   -4.1130  -20.1190 O   0  5  0  0  0  0  0  0  0  0  0  0
   -6.7680   -2.0360  -20.9640 N   0  0  0  0  0  0  0  0  0  0  0  0
   -6.1470   -1.2010  -20.0030 C   0  0  0  0  0  0  0  0  0  0  0  0
   -6.5220   -1.2880  -18.6860 C   0  0  0  0  0  0  0  0  0  0  0  0
   -6.0250   -0.5130  -17.6920 N   0  0  0  0  0  0  0  0  0  0  0  0
   -5.1030    0.3660  -18.0100 C   0  0  0  0  0  0  0  0  0  0  0  0
   -4.6060    0.5460  -19.3310 C   0  0  0  0  0  0  0  0  0  0  0  0
   -3.6040    1.5100  -19.6300 C   0  0  0  0  0  0  0  0  0  0  0  0
   -3.1390    1.6480  -20.9120 C   0  0  0  0  0  0  0  0  0  0  0  0
   -3.6480    0.8290  -21.9430 C   0  0  0  0  0  0  0  0  0  0  0  0
   -4.6120   -0.1120  -21.6790 C   0  0  0  0  0  0  0  0  0  0  0  0
   -5.1290   -0.2640  -20.3630 C   0  0  0  0  0  0  0  0  0  0  0  0
   -4.9990   -0.7360  -22.4760 H   0  0  0  0  0  0  0  0  0  0  0  0
   -3.2770    0.9460  -22.9580 H   0  0  0  0  0  0  0  0  0  0  0  0
   -2.3770    2.3890  -21.1470 H   0  0  0  0  0  0  0  0  0  0  0  0
   -3.2180    2.1320  -18.8280 H   0  0  0  0  0  0  0  0  0  0  0  0
   -4.6990    0.9800  -17.2030 H   0  0  0  0  0  0  0  0  0  0  0  0
   -7.2740   -2.0080  -18.3760 H   0  0  0  0  0  0  0  0  0  0  0  0
   -7.5600   -1.5930  -22.0360 C   0  0  0  0  0  0  0  0  0  0  0  0
   -7.8140   -0.4520  -22.3350 O   0  0  0  0  0  0  0  0  0  0  0  0
   -7.9860   -2.7490  -22.6680 N   0  0  0  0  0  0  0  0  0  0  0  0
   -8.9080   -2.7640  -23.7970 C   0  0  0  0  0  0  0  0  0  0  0  0
   -8.6140   -1.9810  -24.4850 H   0  0  0  0  0  0  0  0  0  0  0  0
   -9.9150   -2.5070  -23.4510 H   0  0  0  0  0  0  0  0  0  0  0  0
   -8.0290   -5.8690  -21.6230 H   0  0  0  0  0  0  0  0  0  0  0  0
   -6.9450   -5.6340  -22.9640 H   0  0  0  0  0  0  0  0  0  0  0  0
   -9.1210   -6.2120  -23.9290 H   0  0  0  0  0  0  0  0  0  0  0  0
   -9.9470   -4.9620  -22.9530 H   0  0  0  0  0  0  0  0  0  0  0  0
   -7.9750   -4.2400  -25.0620 H   0  0  0  0  0  0  0  0  0  0  0  0
  -11.0580   -4.1350  -24.9990 H   0  0  0  0  0  0  0  0  0  0  0  0
  -10.0300   -3.4500  -26.2670 H   0  0  0  0  0  0  0  0  0  0  0  0
  -10.0840   -5.1970  -26.0100 H   0  0  0  0  0  0  0  0  0  0  0  0
  1  2  1  0  0  0  0
  1 36  1  0  0  0  0
  1 37  1  0  0  0  0
  1 38  1  0  0  0  0
  2  3  1  0  0  0  0
  2 28  1  0  0  0  0
  2 35  1  6  0  0  0
  3  4  1  0  0  0  0
  3 33  1  0  0  0  0
  3 34  1  0  0  0  0
  4  5  1  0  0  0  0
  4 31  1  0  0  0  0
  4 32  1  0  0  0  0
  5  6  2  0  0  0  0
  5 27  1  0  0  0  0
  6  7  1  0  0  0  0
  6  8  1  0  0  0  0
  8  9  1  0  0  0  0
  8 25  1  0  0  0  0
  9 10  2  0  0  0  0
  9 18  1  0  0  0  0
 10 11  1  0  0  0  0
 10 24  1  0  0  0  0
 11 12  2  0  0  0  0
 12 13  1  0  0  0  0
 12 23  1  0  0  0  0
 13 14  2  0  0  0  0
 13 18  1  0  0  0  0
 14 15  1  0  0  0  0
 14 22  1  0  0  0  0
 15 16  2  0  0  0  0
 15 21  1  0  0  0  0
 16 17  1  0  0  0  0
 16 20  1  0  0  0  0
 17 18  2  0  0  0  0
 17 19  1  0  0  0  0
 25 26  2  0  0  0  0
 25 27  1  0  0  0  0
 27 28  1  0  0  0  0
 28 29  1  0  0  0  0
 28 30  1  0  0  0  0
M  CHG  1   7  -1
M  END
>  <MODEL>
       4

$$$$
best_conformers_17.pdb
 OpenBabel01292518153D

 38 41  0  0  1  0  0  0  0  0999 V2000
   -7.2440   -5.4010  -24.7750 C   0  0  0  0  0  0  0  0  0  0  0  0
   -8.3840   -5.3750  -23.7630 C   0  0  2  0  0  0  0  0  0  0  0  0
   -9.4180   -4.2880  -24.0620 C   0  0  0  0  0  0  0  0  0  0  0  0
   -8.8410   -2.8830  -23.8900 C   0  0  0  0  0  0  0  0  0  0  0  0
   -8.0310   -2.7780  -22.6790 C   0  0  0  0  0  0  0  0  0  0  0  0
   -7.5730   -1.5780  -22.0420 C   0  0  0  0  0  0  0  0  0  0  0  0
   -7.7850   -0.4160  -22.3120 O   0  5  0  0  0  0  0  0  0  0  0  0
   -6.7650   -2.0470  -20.9660 N   0  0  0  0  0  0  0  0  0  0  0  0
   -6.1470   -1.2090  -19.9990 C   0  0  0  0  0  0  0  0  0  0  0  0
   -6.5190   -1.2890  -18.6820 C   0  0  0  0  0  0  0  0  0  0  0  0
   -6.0180   -0.5100  -17.6840 N   0  0  0  0  0  0  0  0  0  0  0  0
   -5.1010    0.3660  -18.0060 C   0  0  0  0  0  0  0  0  0  0  0  0
   -4.6040    0.5490  -19.3280 C   0  0  0  0  0  0  0  0  0  0  0  0
   -3.6020    1.5120  -19.6330 C   0  0  0  0  0  0  0  0  0  0  0  0
   -3.1400    1.6510  -20.9100 C   0  0  0  0  0  0  0  0  0  0  0  0
   -3.6510    0.8310  -21.9440 C   0  0  0  0  0  0  0  0  0  0  0  0
   -4.6120   -0.1070  -21.6750 C   0  0  0  0  0  0  0  0  0  0  0  0
   -5.1310   -0.2650  -20.3620 C   0  0  0  0  0  0  0  0  0  0  0  0
   -4.9990   -0.7390  -22.4690 H   0  0  0  0  0  0  0  0  0  0  0  0
   -3.2790    0.9450  -22.9580 H   0  0  0  0  0  0  0  0  0  0  0  0
   -2.3770    2.3880  -21.1500 H   0  0  0  0  0  0  0  0  0  0  0  0
   -3.2110    2.1360  -18.8300 H   0  0  0  0  0  0  0  0  0  0  0  0
   -4.6920    0.9870  -17.2020 H   0  0  0  0  0  0  0  0  0  0  0  0
   -7.2750   -2.0040  -18.3740 H   0  0  0  0  0  0  0  0  0  0  0  0
   -6.7260   -3.4520  -20.9380 C   0  0  0  0  0  0  0  0  0  0  0  0
   -6.1290   -4.1470  -20.1440 O   0  0  0  0  0  0  0  0  0  0  0  0
   -7.5150   -3.8450  -22.0180 N   0  0  0  0  0  0  0  0  0  0  0  0
   -7.8710   -5.2280  -22.3270 C   0  0  0  0  0  0  0  0  0  0  0  0
   -6.9940   -5.8450  -22.1580 H   0  0  0  0  0  0  0  0  0  0  0  0
   -8.6310   -5.5930  -21.6350 H   0  0  0  0  0  0  0  0  0  0  0  0
   -8.2340   -2.5920  -24.7600 H   0  0  0  0  0  0  0  0  0  0  0  0
   -9.6330   -2.1310  -23.8460 H   0  0  0  0  0  0  0  0  0  0  0  0
   -9.8040   -4.4030  -25.0780 H   0  0  0  0  0  0  0  0  0  0  0  0
  -10.2680   -4.4030  -23.3830 H   0  0  0  0  0  0  0  0  0  0  0  0
   -8.8970   -6.3430  -23.8260 H   0  0  0  0  0  0  0  0  0  0  0  0
   -7.6250   -5.4600  -25.7980 H   0  0  0  0  0  0  0  0  0  0  0  0
   -6.6240   -4.5060  -24.7010 H   0  0  0  0  0  0  0  0  0  0  0  0
   -6.5920   -6.2640  -24.6140 H   0  0  0  0  0  0  0  0  0  0  0  0
  1  2  1  0  0  0  0
  1 36  1  0  0  0  0
  1 37  1  0  0  0  0
  1 38  1  0  0  0  0
  2  3  1  0  0  0  0
  2 28  1  0  0  0  0
  2 35  1  6  0  0  0
  3  4  1  0  0  0  0
  3 33  1  0  0  0  0
  3 34  1  0  0  0  0
  4  5  1  0  0  0  0
  4 31  1  0  0  0  0
  4 32  1  0  0  0  0
  5  6  2  0  0  0  0
  5 27  1  0  0  0  0
  6  7  1  0  0  0  0
  6  8  1  0  0  0  0
  8  9  1  0  0  0  0
  8 25  1  0  0  0  0
  9 10  2  0  0  0  0
  9 18  1  0  0  0  0
 10 11  1  0  0  0  0
 10 24  1  0  0  0  0
 11 12  2  0  0  0  0
 12 13  1  0  0  0  0
 12 23  1  0  0  0  0
 13 14  2  0  0  0  0
 13 18  1  0  0  0  0
 14 15  1  0  0  0  0
 14 22  1  0  0  0  0
 15 16  2  0  0  0  0
 15 21  1  0  0  0  0
 16 17  1  0  0  0  0
 16 20  1  0  0  0  0
 17 18  2  0  0  0  0
 17 19  1  0  0  0  0
 25 26  2  0  0  0  0
 25 27  1  0  0  0  0
 27 28  1  0  0  0  0
 28 29  1  0  0  0  0
 28 30  1  0  0  0  0
M  CHG  1   7  -1
M  END
>  <MODEL>
       5

$$$$
best_conformers_17.pdb
 OpenBabel01292518153D

 38 41  0  0  1  0  0  0  0  0999 V2000
   -7.8010   -4.1960  -25.4730 C   0  0  0  0  0  0  0  0  0  0  0  0
   -7.8520   -5.1330  -24.2780 C   0  0  2  0  0  0  0  0  0  0  0  0
   -9.1860   -5.0600  -23.5430 C   0  0  0  0  0  0  0  0  0  0  0  0
   -9.4190   -3.7180  -22.8540 C   0  0  0  0  0  0  0  0  0  0  0  0
   -8.2110   -3.2500  -22.1800 C   0  0  0  0  0  0  0  0  0  0  0  0
   -8.1020   -2.1820  -21.2310 C   0  0  0  0  0  0  0  0  0  0  0  0
   -8.9620   -1.4720  -20.7590 O   0  5  0  0  0  0  0  0  0  0  0  0
   -6.7130   -2.0940  -20.9590 N   0  0  0  0  0  0  0  0  0  0  0  0
   -6.1350   -1.2170  -19.9980 C   0  0  0  0  0  0  0  0  0  0  0  0
   -6.5180   -1.2860  -18.6780 C   0  0  0  0  0  0  0  0  0  0  0  0
   -6.0130   -0.5150  -17.6810 N   0  0  0  0  0  0  0  0  0  0  0  0
   -5.0930    0.3670  -18.0020 C   0  0  0  0  0  0  0  0  0  0  0  0
   -4.6060    0.5530  -19.3310 C   0  0  0  0  0  0  0  0  0  0  0  0
   -3.6120    1.5260  -19.6330 C   0  0  0  0  0  0  0  0  0  0  0  0
   -3.1850    1.6930  -20.9250 C   0  0  0  0  0  0  0  0  0  0  0  0
   -3.7310    0.9080  -21.9620 C   0  0  0  0  0  0  0  0  0  0  0  0
   -4.6940   -0.0340  -21.6940 C   0  0  0  0  0  0  0  0  0  0  0  0
   -5.1440   -0.2480  -20.3610 C   0  0  0  0  0  0  0  0  0  0  0  0
   -5.1200   -0.6260  -22.4970 H   0  0  0  0  0  0  0  0  0  0  0  0
   -3.3970    1.0550  -22.9840 H   0  0  0  0  0  0  0  0  0  0  0  0
   -2.4320    2.4380  -21.1650 H   0  0  0  0  0  0  0  0  0  0  0  0
   -3.2070    2.1400  -18.8320 H   0  0  0  0  0  0  0  0  0  0  0  0
   -4.6880    0.9900  -17.2030 H   0  0  0  0  0  0  0  0  0  0  0  0
   -7.2720   -2.0060  -18.3790 H   0  0  0  0  0  0  0  0  0  0  0  0
   -6.0040   -3.0680  -21.6780 C   0  0  0  0  0  0  0  0  0  0  0  0
   -4.8190   -3.2930  -21.6120 O   0  0  0  0  0  0  0  0  0  0  0  0
   -6.9660   -3.7160  -22.4490 N   0  0  0  0  0  0  0  0  0  0  0  0
   -6.7010   -4.8860  -23.2910 C   0  0  0  0  0  0  0  0  0  0  0  0
   -5.7660   -4.7230  -23.8280 H   0  0  0  0  0  0  0  0  0  0  0  0
   -6.5370   -5.7680  -22.6590 H   0  0  0  0  0  0  0  0  0  0  0  0
  -10.2290   -3.7730  -22.1190 H   0  0  0  0  0  0  0  0  0  0  0  0
   -9.7390   -2.9550  -23.5750 H   0  0  0  0  0  0  0  0  0  0  0  0
  -10.0200   -5.2710  -24.2170 H   0  0  0  0  0  0  0  0  0  0  0  0
   -9.1530   -5.8470  -22.7950 H   0  0  0  0  0  0  0  0  0  0  0  0
   -7.7440   -6.1600  -24.6550 H   0  0  0  0  0  0  0  0  0  0  0  0
   -6.8910   -4.3550  -26.0550 H   0  0  0  0  0  0  0  0  0  0  0  0
   -8.6560   -4.3600  -26.1350 H   0  0  0  0  0  0  0  0  0  0  0  0
   -7.8160   -3.1510  -25.1580 H   0  0  0  0  0  0  0  0  0  0  0  0
  1  2  1  0  0  0  0
  1 36  1  0  0  0  0
  1 37  1  0  0  0  0
  1 38  1  0  0  0  0
  2  3  1  0  0  0  0
  2 28  1  0  0  0  0
  2 35  1  6  0  0  0
  3  4  1  0  0  0  0
  3 33  1  0  0  0  0
  3 34  1  0  0  0  0
  4  5  1  0  0  0  0
  4 31  1  0  0  0  0
  4 32  1  0  0  0  0
  5  6  2  0  0  0  0
  5 27  1  0  0  0  0
  6  7  1  0  0  0  0
  6  8  1  0  0  0  0
  8  9  1  0  0  0  0
  8 25  1  0  0  0  0
  9 10  2  0  0  0  0
  9 18  1  0  0  0  0
 10 11  1  0  0  0  0
 10 24  1  0  0  0  0
 11 12  2  0  0  0  0
 12 13  1  0  0  0  0
 12 23  1  0  0  0  0
 13 14  2  0  0  0  0
 13 18  1  0  0  0  0
 14 15  1  0  0  0  0
 14 22  1  0  0  0  0
 15 16  2  0  0  0  0
 15 21  1  0  0  0  0
 16 17  1  0  0  0  0
 16 20  1  0  0  0  0
 17 18  2  0  0  0  0
 17 19  1  0  0  0  0
 25 26  2  0  0  0  0
 25 27  1  0  0  0  0
 27 28  1  0  0  0  0
 28 29  1  0  0  0  0
 28 30  1  0  0  0  0
M  CHG  1   7  -1
M  END
>  <MODEL>
       6

$$$$
