best_conformers_61.pdb
 OpenBabel01292518153D

 44 47  0  0  0  0  0  0  0  0999 V2000
   -4.7060   -3.3880  -20.9680 O   0  0  0  0  0  0  0  0  0  0  0  0
   -5.8600   -3.3560  -21.3580 C   0  0  0  0  0  0  0  0  0  0  0  0
   -6.7660   -2.1470  -21.0190 C   0  0  0  0  0  0  0  0  0  0  0  0
   -6.1430   -1.2140  -20.0060 C   0  0  0  0  0  0  0  0  0  0  0  0
   -6.5070   -1.2800  -18.6840 C   0  0  0  0  0  0  0  0  0  0  0  0
   -6.0140   -0.5140  -17.6740 N   0  0  0  0  0  0  0  0  0  0  0  0
   -5.0960    0.3690  -17.9990 C   0  0  0  0  0  0  0  0  0  0  0  0
   -4.6050    0.5500  -19.3240 C   0  0  0  0  0  0  0  0  0  0  0  0
   -3.6060    1.5150  -19.6250 C   0  0  0  0  0  0  0  0  0  0  0  0
   -3.1470    1.6640  -20.9090 C   0  0  0  0  0  0  0  0  0  0  0  0
   -3.6690    0.8540  -21.9410 C   0  0  0  0  0  0  0  0  0  0  0  0
   -4.6390   -0.0850  -21.6740 C   0  0  0  0  0  0  0  0  0  0  0  0
   -5.1350   -0.2630  -20.3550 C   0  0  0  0  0  0  0  0  0  0  0  0
   -5.0180   -0.7070  -22.4770 H   0  0  0  0  0  0  0  0  0  0  0  0
   -3.3020    0.9780  -22.9540 H   0  0  0  0  0  0  0  0  0  0  0  0
   -2.3860    2.4050  -21.1420 H   0  0  0  0  0  0  0  0  0  0  0  0
   -3.2120    2.1360  -18.8240 H   0  0  0  0  0  0  0  0  0  0  0  0
   -4.6880    0.9910  -17.2000 H   0  0  0  0  0  0  0  0  0  0  0  0
   -7.2600   -1.9950  -18.3660 H   0  0  0  0  0  0  0  0  0  0  0  0
   -7.0100   -1.5870  -21.9330 H   0  0  0  0  0  0  0  0  0  0  0  0
   -7.7230   -2.5120  -20.6180 H   0  0  0  0  0  0  0  0  0  0  0  0
   -6.4170   -4.4160  -22.0340 N   0  0  0  0  0  0  0  0  0  0  0  0
   -5.5920   -5.5990  -22.2800 C   0  0  0  0  0  0  0  0  0  0  0  0
   -5.0790   -5.6450  -23.7150 C   0  0  0  0  0  0  0  0  0  0  0  0
   -6.2120   -5.5180  -24.7290 C   0  0  0  0  0  0  0  0  0  0  0  0
   -6.9980   -6.8340  -24.9620 C   0  0  0  0  0  0  0  0  0  0  0  0
   -6.5240   -6.8770  -26.4260 C   0  0  0  0  0  0  0  0  0  0  0  0
   -5.7410   -5.5700  -26.2000 C   0  0  0  0  0  0  0  0  0  0  0  0
   -4.6600   -5.6570  -26.3220 H   0  0  0  0  0  0  0  0  0  0  0  0
   -6.0760   -4.7260  -26.8050 H   0  0  0  0  0  0  0  0  0  0  0  0
   -5.9030   -7.7380  -26.6770 H   0  0  0  0  0  0  0  0  0  0  0  0
   -7.3250   -6.8020  -27.1620 H   0  0  0  0  0  0  0  0  0  0  0  0
   -8.0780   -6.7440  -24.8340 H   0  0  0  0  0  0  0  0  0  0  0  0
   -6.6570   -7.6680  -24.3460 H   0  0  0  0  0  0  0  0  0  0  0  0
   -7.0930   -4.3120  -24.4040 C   0  0  0  0  0  0  0  0  0  0  0  0
   -7.5490   -4.3170  -22.9460 C   0  0  0  0  0  0  0  0  0  0  0  0
   -8.2050   -5.1780  -22.7780 H   0  0  0  0  0  0  0  0  0  0  0  0
   -8.1420   -3.4310  -22.7220 H   0  0  0  0  0  0  0  0  0  0  0  0
   -7.9600   -4.3020  -25.0730 H   0  0  0  0  0  0  0  0  0  0  0  0
   -6.5450   -3.3870  -24.6150 H   0  0  0  0  0  0  0  0  0  0  0  0
   -4.3660   -4.8360  -23.8730 H   0  0  0  0  0  0  0  0  0  0  0  0
   -4.5170   -6.5690  -23.8960 H   0  0  0  0  0  0  0  0  0  0  0  0
   -4.7690   -5.6210  -21.5680 H   0  0  0  0  0  0  0  0  0  0  0  0
   -6.2010   -6.4900  -22.0960 H   0  0  0  0  0  0  0  0  0  0  0  0
  1  2  2  0  0  0  0
  2  3  1  0  0  0  0
  2 22  1  0  0  0  0
  3  4  1  0  0  0  0
  3 20  1  0  0  0  0
  3 21  1  0  0  0  0
  4  5  2  0  0  0  0
  4 13  1  0  0  0  0
  5  6  1  0  0  0  0
  5 19  1  0  0  0  0
  6  7  2  0  0  0  0
  7  8  1  0  0  0  0
  7 18  1  0  0  0  0
  8  9  2  0  0  0  0
  8 13  1  0  0  0  0
  9 10  1  0  0  0  0
  9 17  1  0  0  0  0
 10 11  2  0  0  0  0
 10 16  1  0  0  0  0
 11 12  1  0  0  0  0
 11 15  1  0  0  0  0
 12 13  2  0  0  0  0
 12 14  1  0  0  0  0
 22 23  1  0  0  0  0
 22 36  1  0  0  0  0
 23 24  1  0  0  0  0
 23 43  1  0  0  0  0
 23 44  1  0  0  0  0
 24 25  1  0  0  0  0
 24 41  1  0  0  0  0
 24 42  1  0  0  0  0
 25 26  1  0  0  0  0
 25 28  1  0  0  0  0
 25 35  1  0  0  0  0
 26 27  1  0  0  0  0
 26 33  1  0  0  0  0
 26 34  1  0  0  0  0
 27 28  1  0  0  0  0
 27 31  1  0  0  0  0
 27 32  1  0  0  0  0
 28 29  1  0  0  0  0
 28 30  1  0  0  0  0
 35 36  1  0  0  0  0
 35 39  1  0  0  0  0
 35 40  1  0  0  0  0
 36 37  1  0  0  0  0
 36 38  1  0  0  0  0
M  END
>  <MODEL>
       1

$$$$
best_conformers_61.pdb
 OpenBabel01292518153D

 44 47  0  0  0  0  0  0  0  0999 V2000
   -8.0650   -0.0960  -21.2420 O   0  0  0  0  0  0  0  0  0  0  0  0
   -7.9570   -1.2900  -21.4840 C   0  0  0  0  0  0  0  0  0  0  0  0
   -6.7490   -2.1000  -20.9770 C   0  0  0  0  0  0  0  0  0  0  0  0
   -6.0550   -1.2920  -19.9410 C   0  0  0  0  0  0  0  0  0  0  0  0
   -6.5010   -1.3460  -18.6460 C   0  0  0  0  0  0  0  0  0  0  0  0
   -6.0500   -0.5590  -17.6370 N   0  0  0  0  0  0  0  0  0  0  0  0
   -5.1350    0.3290  -17.9580 C   0  0  0  0  0  0  0  0  0  0  0  0
   -4.6150    0.5170  -19.2700 C   0  0  0  0  0  0  0  0  0  0  0  0
   -3.6430    1.5030  -19.5790 C   0  0  0  0  0  0  0  0  0  0  0  0
   -3.2010    1.6690  -20.8630 C   0  0  0  0  0  0  0  0  0  0  0  0
   -3.7230    0.8790  -21.9100 C   0  0  0  0  0  0  0  0  0  0  0  0
   -4.6700   -0.0790  -21.6410 C   0  0  0  0  0  0  0  0  0  0  0  0
   -5.1120   -0.2990  -20.3080 C   0  0  0  0  0  0  0  0  0  0  0  0
   -5.0970   -0.6540  -22.4560 H   0  0  0  0  0  0  0  0  0  0  0  0
   -3.3780    1.0320  -22.9300 H   0  0  0  0  0  0  0  0  0  0  0  0
   -2.4500    2.4230  -21.0910 H   0  0  0  0  0  0  0  0  0  0  0  0
   -3.2710    2.1280  -18.7720 H   0  0  0  0  0  0  0  0  0  0  0  0
   -4.7650    0.9640  -17.1530 H   0  0  0  0  0  0  0  0  0  0  0  0
   -7.2900   -2.0510  -18.3820 H   0  0  0  0  0  0  0  0  0  0  0  0
   -6.0990   -2.3770  -21.8180 H   0  0  0  0  0  0  0  0  0  0  0  0
   -7.1080   -3.0330  -20.5250 H   0  0  0  0  0  0  0  0  0  0  0  0
   -8.9080   -1.9860  -22.1660 N   0  0  0  0  0  0  0  0  0  0  0  0
   -8.8100   -3.4180  -22.4150 C   0  0  0  0  0  0  0  0  0  0  0  0
   -9.3470   -3.7490  -23.7920 C   0  0  0  0  0  0  0  0  0  0  0  0
  -10.7180   -3.1370  -24.0340 C   0  0  0  0  0  0  0  0  0  0  0  0
  -11.2870   -3.6990  -25.3510 C   0  0  0  0  0  0  0  0  0  0  0  0
  -12.0690   -4.7450  -24.5180 C   0  0  0  0  0  0  0  0  0  0  0  0
  -11.8590   -3.8560  -23.2860 C   0  0  0  0  0  0  0  0  0  0  0  0
  -12.7010   -3.1620  -23.2170 H   0  0  0  0  0  0  0  0  0  0  0  0
  -11.6490   -4.2480  -22.2880 H   0  0  0  0  0  0  0  0  0  0  0  0
  -11.5390   -5.6960  -24.5110 H   0  0  0  0  0  0  0  0  0  0  0  0
  -13.1080   -4.9420  -24.7490 H   0  0  0  0  0  0  0  0  0  0  0  0
  -11.8920   -2.9660  -25.8880 H   0  0  0  0  0  0  0  0  0  0  0  0
  -10.5210   -4.0980  -26.0200 H   0  0  0  0  0  0  0  0  0  0  0  0
  -10.6920   -1.6290  -23.7970 C   0  0  0  0  0  0  0  0  0  0  0  0
  -10.2220   -1.3710  -22.3650 C   0  0  0  0  0  0  0  0  0  0  0  0
  -10.1170   -0.3050  -22.1420 H   0  0  0  0  0  0  0  0  0  0  0  0
  -10.9360   -1.8050  -21.6430 H   0  0  0  0  0  0  0  0  0  0  0  0
  -11.6980   -1.2120  -23.9580 H   0  0  0  0  0  0  0  0  0  0  0  0
  -10.0040   -1.1290  -24.4900 H   0  0  0  0  0  0  0  0  0  0  0  0
   -9.4040   -4.8380  -23.9040 H   0  0  0  0  0  0  0  0  0  0  0  0
   -8.6520   -3.3820  -24.5580 H   0  0  0  0  0  0  0  0  0  0  0  0
   -7.7610   -3.7220  -22.3590 H   0  0  0  0  0  0  0  0  0  0  0  0
   -9.3690   -3.9900  -21.6580 H   0  0  0  0  0  0  0  0  0  0  0  0
  1  2  2  0  0  0  0
  2  3  1  0  0  0  0
  2 22  1  0  0  0  0
  3  4  1  0  0  0  0
  3 20  1  0  0  0  0
  3 21  1  0  0  0  0
  4  5  2  0  0  0  0
  4 13  1  0  0  0  0
  5  6  1  0  0  0  0
  5 19  1  0  0  0  0
  6  7  2  0  0  0  0
  7  8  1  0  0  0  0
  7 18  1  0  0  0  0
  8  9  2  0  0  0  0
  8 13  1  0  0  0  0
  9 10  1  0  0  0  0
  9 17  1  0  0  0  0
 10 11  2  0  0  0  0
 10 16  1  0  0  0  0
 11 12  1  0  0  0  0
 11 15  1  0  0  0  0
 12 13  2  0  0  0  0
 12 14  1  0  0  0  0
 22 23  1  0  0  0  0
 22 36  1  0  0  0  0
 23 24  1  0  0  0  0
 23 43  1  0  0  0  0
 23 44  1  0  0  0  0
 24 25  1  0  0  0  0
 24 41  1  0  0  0  0
 24 42  1  0  0  0  0
 25 26  1  0  0  0  0
 25 28  1  0  0  0  0
 25 35  1  0  0  0  0
 26 27  1  0  0  0  0
 26 33  1  0  0  0  0
 26 34  1  0  0  0  0
 27 28  1  0  0  0  0
 27 31  1  0  0  0  0
 27 32  1  0  0  0  0
 28 29  1  0  0  0  0
 28 30  1  0  0  0  0
 35 36  1  0  0  0  0
 35 39  1  0  0  0  0
 35 40  1  0  0  0  0
 36 37  1  0  0  0  0
 36 38  1  0  0  0  0
M  END
>  <MODEL>
       2

$$$$
