best_conformers_13.pdb
 OpenBabel01292518153D

 69 74  0  0  1  0  0  0  0  0999 V2000
   -6.2530   -0.6640  -28.5500 C   0  0  0  0  0  0  0  0  0  0  0  0
   -6.1470   -1.5590  -27.4120 N   0  0  0  0  0  0  0  0  0  0  0  0
   -6.8070   -2.7440  -27.5060 C   0  0  0  0  0  0  0  0  0  0  0  0
   -7.4320   -3.0230  -28.5120 O   0  0  0  0  0  0  0  0  0  0  0  0
   -6.7750   -3.6750  -26.2990 C   0  0  0  0  0  0  0  0  0  0  0  0
   -7.7060   -3.2700  -25.2580 N   0  0  0  0  0  0  0  0  0  0  0  0
   -7.2710   -2.3890  -24.1910 C   0  0  0  0  0  0  0  0  0  0  0  0
   -7.9810   -2.7150  -22.8630 C   0  0  2  0  0  0  0  0  0  0  0  0
   -7.6420   -1.5910  -21.8810 C   0  0  0  0  0  0  0  0  0  0  0  0
   -8.0360   -0.4430  -21.8960 O   0  0  0  0  0  0  0  0  0  0  0  0
   -6.7320   -2.0710  -20.9670 N   0  0  0  0  0  0  0  0  0  0  0  0
   -6.1500   -1.2250  -20.0000 C   0  0  0  0  0  0  0  0  0  0  0  0
   -6.5480   -1.3360  -18.6940 C   0  0  0  0  0  0  0  0  0  0  0  0
   -6.0740   -0.5720  -17.6790 N   0  0  0  0  0  0  0  0  0  0  0  0
   -5.1600    0.3180  -17.9950 C   0  0  0  0  0  0  0  0  0  0  0  0
   -4.6470    0.5210  -19.3100 C   0  0  0  0  0  0  0  0  0  0  0  0
   -3.6530    1.4980  -19.5850 C   0  0  0  0  0  0  0  0  0  0  0  0
   -3.1560    1.6460  -20.8510 C   0  0  0  0  0  0  0  0  0  0  0  0
   -3.6310    0.8320  -21.9050 C   0  0  0  0  0  0  0  0  0  0  0  0
   -4.6060   -0.1060  -21.6720 C   0  0  0  0  0  0  0  0  0  0  0  0
   -5.1430   -0.2790  -20.3610 C   0  0  0  0  0  0  0  0  0  0  0  0
   -4.9730   -0.7200  -22.4910 H   0  0  0  0  0  0  0  0  0  0  0  0
   -3.2250    0.9620  -22.9050 H   0  0  0  0  0  0  0  0  0  0  0  0
   -2.3970    2.3970  -21.0540 H   0  0  0  0  0  0  0  0  0  0  0  0
   -3.3110    2.1220  -18.7640 H   0  0  0  0  0  0  0  0  0  0  0  0
   -4.7700    0.9370  -17.1890 H   0  0  0  0  0  0  0  0  0  0  0  0
   -7.3130   -2.0680  -18.4330 H   0  0  0  0  0  0  0  0  0  0  0  0
   -6.2910   -3.4290  -21.2030 C   0  0  0  0  0  0  0  0  0  0  0  0
   -7.4150   -3.9630  -22.0930 C   0  0  2  0  0  0  0  0  0  0  0  0
   -7.0770   -5.2310  -22.8690 C   0  0  0  0  0  0  0  0  0  0  0  0
   -5.7450   -5.1960  -23.4370 N   0  0  0  0  0  0  0  0  0  0  0  0
   -5.2470   -6.0750  -24.3430 C   0  0  0  0  0  0  0  0  0  0  0  0
   -5.9830   -7.1790  -24.8000 C   0  0  0  0  0  0  0  0  0  0  0  0
   -5.3770   -7.9460  -25.7710 C   0  0  0  0  0  0  0  0  0  0  0  0
   -4.1450   -7.7250  -26.2370 N   0  0  0  0  0  0  0  0  0  0  0  0
   -3.5150   -6.6730  -25.7080 C   0  0  0  0  0  0  0  0  0  0  0  0
   -2.1130   -6.3980  -26.1790 C   0  0  0  0  0  0  0  0  0  0  0  0
   -1.6040   -5.7790  -25.4390 H   0  0  0  0  0  0  0  0  0  0  0  0
   -1.5660   -7.3310  -26.3340 H   0  0  0  0  0  0  0  0  0  0  0  0
   -2.1270   -5.8640  -27.1350 H   0  0  0  0  0  0  0  0  0  0  0  0
   -4.0130   -5.8230  -24.8050 N   0  0  0  0  0  0  0  0  0  0  0  0
   -5.9000   -8.7980  -26.2080 H   0  0  0  0  0  0  0  0  0  0  0  0
   -6.9750   -7.3910  -24.4110 H   0  0  0  0  0  0  0  0  0  0  0  0
   -5.1310   -4.4120  -23.2680 H   0  0  0  0  0  0  0  0  0  0  0  0
   -7.8280   -5.3740  -23.6530 H   0  0  0  0  0  0  0  0  0  0  0  0
   -7.1730   -6.0950  -22.1970 H   0  0  0  0  0  0  0  0  0  0  0  0
   -8.2460   -4.2190  -21.4320 H   0  0  0  0  0  0  0  0  0  0  0  0
   -5.3070   -3.4190  -21.6940 H   0  0  0  0  0  0  0  0  0  0  0  0
   -6.1830   -3.9780  -20.2590 H   0  0  0  0  0  0  0  0  0  0  0  0
   -9.4770   -2.8180  -23.1150 C   0  0  0  0  0  0  0  0  0  0  0  0
  -10.3990   -2.6560  -22.0660 C   0  0  0  0  0  0  0  0  0  0  0  0
  -11.7270   -2.9970  -22.2620 C   0  0  0  0  0  0  0  0  0  0  0  0
  -12.8650   -3.0030  -20.9400 Cl  0  0  0  0  0  0  0  0  0  0  0  0
  -12.2060   -3.3830  -23.5090 C   0  0  0  0  0  0  0  0  0  0  0  0
  -11.3250   -3.4470  -24.5690 C   0  0  0  0  0  0  0  0  0  0  0  0
   -9.9660   -3.2100  -24.3620 C   0  0  0  0  0  0  0  0  0  0  0  0
   -9.0320   -3.5410  -25.4770 C   0  0  0  0  0  0  0  0  0  0  0  0
   -9.4290   -4.0710  -26.5010 O   0  0  0  0  0  0  0  0  0  0  0  0
  -11.6590   -3.7040  -25.5680 H   0  0  0  0  0  0  0  0  0  0  0  0
  -13.2540   -3.6380  -23.6060 H   0  0  0  0  0  0  0  0  0  0  0  0
  -10.1030   -2.2810  -21.0930 H   0  0  0  0  0  0  0  0  0  0  0  0
   -7.5110   -1.3430  -24.4220 H   0  0  0  0  0  0  0  0  0  0  0  0
   -6.1810   -2.4590  -24.0660 H   0  0  0  0  0  0  0  0  0  0  0  0
   -5.7610   -3.7460  -25.8890 H   0  0  0  0  0  0  0  0  0  0  0  0
   -7.1000   -4.6480  -26.6720 H   0  0  0  0  0  0  0  0  0  0  0  0
   -5.6730   -1.2670  -26.5710 H   0  0  0  0  0  0  0  0  0  0  0  0
   -5.7300    0.2710  -28.3410 H   0  0  0  0  0  0  0  0  0  0  0  0
   -5.8280   -1.1410  -29.4390 H   0  0  0  0  0  0  0  0  0  0  0  0
   -7.3070   -0.4670  -28.7680 H   0  0  0  0  0  0  0  0  0  0  0  0
  1  2  1  0  0  0  0
  1 67  1  0  0  0  0
  1 68  1  0  0  0  0
  1 69  1  0  0  0  0
  2  3  1  0  0  0  0
  2 66  1  0  0  0  0
  3  4  2  0  0  0  0
  3  5  1  0  0  0  0
  5  6  1  0  0  0  0
  5 64  1  0  0  0  0
  5 65  1  0  0  0  0
  6  7  1  0  0  0  0
  6 57  1  0  0  0  0
  7  8  1  0  0  0  0
  7 62  1  0  0  0  0
  7 63  1  0  0  0  0
  8  9  1  1  0  0  0
  8 29  1  0  0  0  0
  8 50  1  0  0  0  0
  9 10  2  0  0  0  0
  9 11  1  0  0  0  0
 11 12  1  0  0  0  0
 11 28  1  0  0  0  0
 12 13  2  0  0  0  0
 12 21  1  0  0  0  0
 13 14  1  0  0  0  0
 13 27  1  0  0  0  0
 14 15  2  0  0  0  0
 15 16  1  0  0  0  0
 15 26  1  0  0  0  0
 16 17  2  0  0  0  0
 16 21  1  0  0  0  0
 17 18  1  0  0  0  0
 17 25  1  0  0  0  0
 18 19  2  0  0  0  0
 18 24  1  0  0  0  0
 19 20  1  0  0  0  0
 19 23  1  0  0  0  0
 20 21  2  0  0  0  0
 20 22  1  0  0  0  0
 28 29  1  0  0  0  0
 28 48  1  0  0  0  0
 28 49  1  0  0  0  0
 29 30  1  0  0  0  0
 29 47  1  1  0  0  0
 30 31  1  0  0  0  0
 30 45  1  0  0  0  0
 30 46  1  0  0  0  0
 31 32  1  0  0  0  0
 31 44  1  0  0  0  0
 32 33  2  0  0  0  0
 32 41  1  0  0  0  0
 33 34  1  0  0  0  0
 33 43  1  0  0  0  0
 34 35  2  0  0  0  0
 34 42  1  0  0  0  0
 35 36  1  0  0  0  0
 36 37  1  0  0  0  0
 36 41  2  0  0  0  0
 37 38  1  0  0  0  0
 37 39  1  0  0  0  0
 37 40  1  0  0  0  0
 50 51  2  0  0  0  0
 50 56  1  0  0  0  0
 51 52  1  0  0  0  0
 51 61  1  0  0  0  0
 52 53  1  0  0  0  0
 52 54  2  0  0  0  0
 54 55  1  0  0  0  0
 54 60  1  0  0  0  0
 55 56  2  0  0  0  0
 55 59  1  0  0  0  0
 56 57  1  0  0  0  0
 57 58  2  0  0  0  0
M  END
>  <MODEL>
       1

$$$$
