best_conformers_85.pdb
 OpenBabel01292518153D

 57 62  0  0  1  0  0  0  0  0999 V2000
   -8.5140   -1.0970  -29.3750 C   0  0  0  0  0  0  0  0  0  0  0  0
   -8.5500   -0.6000  -28.0140 N   0  0  0  0  0  0  0  0  0  0  0  0
   -7.5980   -0.9900  -27.1310 C   0  0  0  0  0  0  0  0  0  0  0  0
   -6.7000   -1.7620  -27.4320 O   0  0  0  0  0  0  0  0  0  0  0  0
   -7.7420   -0.4120  -25.7230 C   0  0  0  0  0  0  0  0  0  0  0  0
   -8.4990   -1.2980  -24.8610 N   0  0  0  0  0  0  0  0  0  0  0  0
   -7.8890   -2.4920  -24.2950 C   0  0  0  0  0  0  0  0  0  0  0  0
   -8.2260   -2.6790  -22.7790 C   0  0  2  0  0  0  0  0  0  0  0  0
   -7.6270   -1.4860  -21.9870 C   0  0  0  0  0  0  0  0  0  0  0  0
   -7.8700   -0.3080  -22.1470 O   0  0  0  0  0  0  0  0  0  0  0  0
   -6.7590   -1.9770  -21.0340 N   0  0  0  0  0  0  0  0  0  0  0  0
   -6.1460   -1.1580  -20.0590 C   0  0  0  0  0  0  0  0  0  0  0  0
   -6.5320   -1.2890  -18.7530 C   0  0  0  0  0  0  0  0  0  0  0  0
   -6.0470   -0.5480  -17.7300 N   0  0  0  0  0  0  0  0  0  0  0  0
   -5.1250    0.3420  -18.0240 C   0  0  0  0  0  0  0  0  0  0  0  0
   -4.6080    0.5540  -19.3360 C   0  0  0  0  0  0  0  0  0  0  0  0
   -3.6080    1.5270  -19.6110 C   0  0  0  0  0  0  0  0  0  0  0  0
   -3.1200    1.6830  -20.8790 C   0  0  0  0  0  0  0  0  0  0  0  0
   -3.5920    0.8710  -21.9340 C   0  0  0  0  0  0  0  0  0  0  0  0
   -4.5580   -0.0730  -21.6980 C   0  0  0  0  0  0  0  0  0  0  0  0
   -5.1090   -0.2350  -20.3950 C   0  0  0  0  0  0  0  0  0  0  0  0
   -4.9190   -0.6970  -22.5090 H   0  0  0  0  0  0  0  0  0  0  0  0
   -3.1920    1.0040  -22.9350 H   0  0  0  0  0  0  0  0  0  0  0  0
   -2.3610    2.4330  -21.0870 H   0  0  0  0  0  0  0  0  0  0  0  0
   -3.2450    2.1470  -18.7950 H   0  0  0  0  0  0  0  0  0  0  0  0
   -4.7380    0.9440  -17.2010 H   0  0  0  0  0  0  0  0  0  0  0  0
   -7.2980   -2.0220  -18.4980 H   0  0  0  0  0  0  0  0  0  0  0  0
   -6.5380   -3.3980  -21.0700 C   0  0  0  0  0  0  0  0  0  0  0  0
   -7.4680   -3.8830  -22.1790 C   0  0  0  0  0  0  0  0  0  0  0  0
   -8.0650   -5.2620  -22.2140 C   0  0  0  0  0  0  0  0  0  0  0  0
   -6.8570   -4.9590  -23.0430 C   0  0  0  0  0  0  0  0  0  0  0  0
   -6.9440   -4.8860  -24.1200 H   0  0  0  0  0  0  0  0  0  0  0  0
   -5.9130   -5.3740  -22.7040 H   0  0  0  0  0  0  0  0  0  0  0  0
   -9.0010   -5.3540  -22.7560 H   0  0  0  0  0  0  0  0  0  0  0  0
   -7.9510   -5.9310  -21.3620 H   0  0  0  0  0  0  0  0  0  0  0  0
   -6.7210   -3.8530  -20.0970 H   0  0  0  0  0  0  0  0  0  0  0  0
   -5.4890   -3.6210  -21.3080 H   0  0  0  0  0  0  0  0  0  0  0  0
   -9.7730   -2.6450  -22.6920 C   0  0  0  0  0  0  0  0  0  0  0  0
  -10.5490   -3.2930  -21.7090 C   0  0  0  0  0  0  0  0  0  0  0  0
  -11.9360   -3.1220  -21.6950 C   0  0  0  0  0  0  0  0  0  0  0  0
  -12.9790   -3.7430  -20.4420 Cl  0  0  0  0  0  0  0  0  0  0  0  0
  -12.6060   -2.3880  -22.6640 C   0  0  0  0  0  0  0  0  0  0  0  0
  -11.8600   -1.7100  -23.5930 C   0  0  0  0  0  0  0  0  0  0  0  0
  -10.4740   -1.8050  -23.5760 C   0  0  0  0  0  0  0  0  0  0  0  0
   -9.7700   -0.9360  -24.5620 C   0  0  0  0  0  0  0  0  0  0  0  0
  -10.3250    0.0120  -25.1090 O   0  0  0  0  0  0  0  0  0  0  0  0
  -12.3180   -1.0840  -24.3510 H   0  0  0  0  0  0  0  0  0  0  0  0
  -13.6890   -2.3220  -22.6580 H   0  0  0  0  0  0  0  0  0  0  0  0
  -10.0620   -3.9010  -20.9620 H   0  0  0  0  0  0  0  0  0  0  0  0
   -8.2370   -3.3800  -24.8440 H   0  0  0  0  0  0  0  0  0  0  0  0
   -6.8080   -2.4120  -24.4250 H   0  0  0  0  0  0  0  0  0  0  0  0
   -8.2790    0.5390  -25.7600 H   0  0  0  0  0  0  0  0  0  0  0  0
   -6.7540   -0.2390  -25.2840 H   0  0  0  0  0  0  0  0  0  0  0  0
   -9.3570   -0.0880  -27.6850 H   0  0  0  0  0  0  0  0  0  0  0  0
   -7.5690   -0.8170  -29.8540 H   0  0  0  0  0  0  0  0  0  0  0  0
   -9.3400   -0.6710  -29.9480 H   0  0  0  0  0  0  0  0  0  0  0  0
   -8.5890   -2.1880  -29.3930 H   0  0  0  0  0  0  0  0  0  0  0  0
  1  2  1  0  0  0  0
  1 55  1  0  0  0  0
  1 56  1  0  0  0  0
  1 57  1  0  0  0  0
  2  3  1  0  0  0  0
  2 54  1  0  0  0  0
  3  4  2  0  0  0  0
  3  5  1  0  0  0  0
  5  6  1  0  0  0  0
  5 52  1  0  0  0  0
  5 53  1  0  0  0  0
  6  7  1  0  0  0  0
  6 45  1  0  0  0  0
  7  8  1  0  0  0  0
  7 50  1  0  0  0  0
  7 51  1  0  0  0  0
  8  9  1  1  0  0  0
  8 29  1  0  0  0  0
  8 38  1  0  0  0  0
  9 10  2  0  0  0  0
  9 11  1  0  0  0  0
 11 12  1  0  0  0  0
 11 28  1  0  0  0  0
 12 13  2  0  0  0  0
 12 21  1  0  0  0  0
 13 14  1  0  0  0  0
 13 27  1  0  0  0  0
 14 15  2  0  0  0  0
 15 16  1  0  0  0  0
 15 26  1  0  0  0  0
 16 17  2  0  0  0  0
 16 21  1  0  0  0  0
 17 18  1  0  0  0  0
 17 25  1  0  0  0  0
 18 19  2  0  0  0  0
 18 24  1  0  0  0  0
 19 20  1  0  0  0  0
 19 23  1  0  0  0  0
 20 21  2  0  0  0  0
 20 22  1  0  0  0  0
 28 29  1  0  0  0  0
 28 36  1  0  0  0  0
 28 37  1  0  0  0  0
 29 30  1  0  0  0  0
 29 31  1  0  0  0  0
 30 31  1  0  0  0  0
 30 34  1  0  0  0  0
 30 35  1  0  0  0  0
 31 32  1  0  0  0  0
 31 33  1  0  0  0  0
 38 39  2  0  0  0  0
 38 44  1  0  0  0  0
 39 40  1  0  0  0  0
 39 49  1  0  0  0  0
 40 41  1  0  0  0  0
 40 42  2  0  0  0  0
 42 43  1  0  0  0  0
 42 48  1  0  0  0  0
 43 44  2  0  0  0  0
 43 47  1  0  0  0  0
 44 45  1  0  0  0  0
 45 46  2  0  0  0  0
M  END
>  <MODEL>
       1

$$$$
