best_conformers_48.pdb
 OpenBabel01292518153D

 46 48  0  0  0  0  0  0  0  0999 V2000
   -9.1740   -5.3720  -26.0710 C   0  0  0  0  0  0  0  0  0  0  0  0
   -8.4110   -5.9890  -24.8990 C   0  0  0  0  0  0  0  0  0  0  0  0
   -8.6070   -7.5070  -24.9100 C   0  0  0  0  0  0  0  0  0  0  0  0
   -8.1500   -8.0040  -24.0510 H   0  0  0  0  0  0  0  0  0  0  0  0
   -9.6690   -7.7690  -24.9120 H   0  0  0  0  0  0  0  0  0  0  0  0
   -8.1770   -7.9470  -25.8160 H   0  0  0  0  0  0  0  0  0  0  0  0
   -6.9040   -5.6210  -24.8850 C   0  0  0  0  0  0  0  0  0  0  0  0
   -6.2010   -6.1550  -23.6130 C   0  0  0  0  0  0  0  0  0  0  0  0
   -5.2620   -5.1510  -22.9480 C   0  0  0  0  0  0  0  0  0  0  0  0
   -5.9600   -3.8960  -22.6610 N   0  0  0  0  0  0  0  0  0  0  0  0
   -5.7920   -3.2900  -21.4400 C   0  0  0  0  0  0  0  0  0  0  0  0
   -4.9420   -3.6660  -20.6470 O   0  0  0  0  0  0  0  0  0  0  0  0
   -6.7440   -2.1320  -21.0380 C   0  0  0  0  0  0  0  0  0  0  0  0
   -6.1390   -1.2110  -20.0030 C   0  0  0  0  0  0  0  0  0  0  0  0
   -6.5050   -1.2810  -18.6820 C   0  0  0  0  0  0  0  0  0  0  0  0
   -6.0140   -0.5120  -17.6710 N   0  0  0  0  0  0  0  0  0  0  0  0
   -5.0960    0.3700  -17.9980 C   0  0  0  0  0  0  0  0  0  0  0  0
   -4.6050    0.5530  -19.3220 C   0  0  0  0  0  0  0  0  0  0  0  0
   -3.6070    1.5160  -19.6270 C   0  0  0  0  0  0  0  0  0  0  0  0
   -3.1520    1.6680  -20.9100 C   0  0  0  0  0  0  0  0  0  0  0  0
   -3.6770    0.8600  -21.9430 C   0  0  0  0  0  0  0  0  0  0  0  0
   -4.6440   -0.0770  -21.6740 C   0  0  0  0  0  0  0  0  0  0  0  0
   -5.1370   -0.2570  -20.3540 C   0  0  0  0  0  0  0  0  0  0  0  0
   -5.0340   -0.6880  -22.4830 H   0  0  0  0  0  0  0  0  0  0  0  0
   -3.3150    0.9880  -22.9590 H   0  0  0  0  0  0  0  0  0  0  0  0
   -2.3910    2.4080  -21.1460 H   0  0  0  0  0  0  0  0  0  0  0  0
   -3.2100    2.1370  -18.8260 H   0  0  0  0  0  0  0  0  0  0  0  0
   -4.6870    0.9920  -17.1990 H   0  0  0  0  0  0  0  0  0  0  0  0
   -7.2610   -1.9990  -18.3680 H   0  0  0  0  0  0  0  0  0  0  0  0
   -7.6430   -2.5900  -20.6000 H   0  0  0  0  0  0  0  0  0  0  0  0
   -7.0940   -1.5440  -21.8970 H   0  0  0  0  0  0  0  0  0  0  0  0
   -6.7590   -3.3300  -23.7460 C   0  0  0  0  0  0  0  0  0  0  0  0
   -6.5980   -4.1230  -25.0400 C   0  0  0  0  0  0  0  0  0  0  0  0
   -7.2210   -3.6810  -25.8220 H   0  0  0  0  0  0  0  0  0  0  0  0
   -5.5740   -3.9970  -25.4120 H   0  0  0  0  0  0  0  0  0  0  0  0
   -6.4570   -2.2920  -23.9400 H   0  0  0  0  0  0  0  0  0  0  0  0
   -7.8170   -3.2990  -23.4650 H   0  0  0  0  0  0  0  0  0  0  0  0
   -4.3900   -4.9820  -23.5900 H   0  0  0  0  0  0  0  0  0  0  0  0
   -4.8780   -5.5480  -22.0090 H   0  0  0  0  0  0  0  0  0  0  0  0
   -5.6420   -7.0680  -23.8440 H   0  0  0  0  0  0  0  0  0  0  0  0
   -6.9410   -6.4450  -22.8620 H   0  0  0  0  0  0  0  0  0  0  0  0
   -6.4590   -6.1180  -25.7590 H   0  0  0  0  0  0  0  0  0  0  0  0
   -8.8560   -5.6050  -23.9730 H   0  0  0  0  0  0  0  0  0  0  0  0
   -8.6510   -5.5360  -27.0180 H   0  0  0  0  0  0  0  0  0  0  0  0
   -9.3260   -4.2960  -25.9560 H   0  0  0  0  0  0  0  0  0  0  0  0
  -10.1640   -5.8280  -26.1750 H   0  0  0  0  0  0  0  0  0  0  0  0
  1  2  1  0  0  0  0
  1 44  1  0  0  0  0
  1 45  1  0  0  0  0
  1 46  1  0  0  0  0
  2  3  1  0  0  0  0
  2  7  1  0  0  0  0
  2 43  1  0  0  0  0
  3  4  1  0  0  0  0
  3  5  1  0  0  0  0
  3  6  1  0  0  0  0
  7  8  1  0  0  0  0
  7 33  1  0  0  0  0
  7 42  1  0  0  0  0
  8  9  1  0  0  0  0
  8 40  1  0  0  0  0
  8 41  1  0  0  0  0
  9 10  1  0  0  0  0
  9 38  1  0  0  0  0
  9 39  1  0  0  0  0
 10 11  1  0  0  0  0
 10 32  1  0  0  0  0
 11 12  2  0  0  0  0
 11 13  1  0  0  0  0
 13 14  1  0  0  0  0
 13 30  1  0  0  0  0
 13 31  1  0  0  0  0
 14 15  2  0  0  0  0
 14 23  1  0  0  0  0
 15 16  1  0  0  0  0
 15 29  1  0  0  0  0
 16 17  2  0  0  0  0
 17 18  1  0  0  0  0
 17 28  1  0  0  0  0
 18 19  2  0  0  0  0
 18 23  1  0  0  0  0
 19 20  1  0  0  0  0
 19 27  1  0  0  0  0
 20 21  2  0  0  0  0
 20 26  1  0  0  0  0
 21 22  1  0  0  0  0
 21 25  1  0  0  0  0
 22 23  2  0  0  0  0
 22 24  1  0  0  0  0
 32 33  1  0  0  0  0
 32 36  1  0  0  0  0
 32 37  1  0  0  0  0
 33 34  1  0  0  0  0
 33 35  1  0  0  0  0
M  END
>  <MODEL>
       1

$$$$
best_conformers_48.pdb
 OpenBabel01292518153D

 46 48  0  0  0  0  0  0  0  0999 V2000
   -8.5990   -7.5090  -24.9140 C   0  0  0  0  0  0  0  0  0  0  0  0
   -8.4050   -5.9920  -24.9020 C   0  0  0  0  0  0  0  0  0  0  0  0
   -9.1660   -5.3750  -26.0760 C   0  0  0  0  0  0  0  0  0  0  0  0
  -10.1560   -5.8330  -26.1820 H   0  0  0  0  0  0  0  0  0  0  0  0
   -9.3200   -4.2990  -25.9610 H   0  0  0  0  0  0  0  0  0  0  0  0
   -8.6410   -5.5390  -27.0220 H   0  0  0  0  0  0  0  0  0  0  0  0
   -6.8980   -5.6220  -24.8860 C   0  0  0  0  0  0  0  0  0  0  0  0
   -6.5930   -4.1230  -25.0400 C   0  0  0  0  0  0  0  0  0  0  0  0
   -6.7560   -3.3310  -23.7460 C   0  0  0  0  0  0  0  0  0  0  0  0
   -5.9580   -3.8960  -22.6600 N   0  0  0  0  0  0  0  0  0  0  0  0
   -5.7910   -3.2910  -21.4390 C   0  0  0  0  0  0  0  0  0  0  0  0
   -4.9410   -3.6660  -20.6460 O   0  0  0  0  0  0  0  0  0  0  0  0
   -6.7440   -2.1330  -21.0380 C   0  0  0  0  0  0  0  0  0  0  0  0
   -6.1390   -1.2120  -20.0030 C   0  0  0  0  0  0  0  0  0  0  0  0
   -6.5050   -1.2810  -18.6820 C   0  0  0  0  0  0  0  0  0  0  0  0
   -6.0140   -0.5120  -17.6710 N   0  0  0  0  0  0  0  0  0  0  0  0
   -5.0960    0.3700  -17.9980 C   0  0  0  0  0  0  0  0  0  0  0  0
   -4.6050    0.5530  -19.3220 C   0  0  0  0  0  0  0  0  0  0  0  0
   -3.6070    1.5160  -19.6270 C   0  0  0  0  0  0  0  0  0  0  0  0
   -3.1520    1.6680  -20.9100 C   0  0  0  0  0  0  0  0  0  0  0  0
   -3.6770    0.8600  -21.9430 C   0  0  0  0  0  0  0  0  0  0  0  0
   -4.6440   -0.0770  -21.6740 C   0  0  0  0  0  0  0  0  0  0  0  0
   -5.1370   -0.2570  -20.3540 C   0  0  0  0  0  0  0  0  0  0  0  0
   -5.0340   -0.6880  -22.4830 H   0  0  0  0  0  0  0  0  0  0  0  0
   -3.3150    0.9880  -22.9590 H   0  0  0  0  0  0  0  0  0  0  0  0
   -2.3910    2.4080  -21.1460 H   0  0  0  0  0  0  0  0  0  0  0  0
   -3.2100    2.1360  -18.8260 H   0  0  0  0  0  0  0  0  0  0  0  0
   -4.6870    0.9920  -17.1990 H   0  0  0  0  0  0  0  0  0  0  0  0
   -7.2610   -1.9990  -18.3680 H   0  0  0  0  0  0  0  0  0  0  0  0
   -7.6430   -2.5910  -20.6000 H   0  0  0  0  0  0  0  0  0  0  0  0
   -7.0940   -1.5450  -21.8970 H   0  0  0  0  0  0  0  0  0  0  0  0
   -5.2590   -5.1500  -22.9470 C   0  0  0  0  0  0  0  0  0  0  0  0
   -6.1960   -6.1550  -23.6130 C   0  0  0  0  0  0  0  0  0  0  0  0
   -6.9370   -6.4450  -22.8630 H   0  0  0  0  0  0  0  0  0  0  0  0
   -5.6370   -7.0680  -23.8430 H   0  0  0  0  0  0  0  0  0  0  0  0
   -4.8750   -5.5470  -22.0080 H   0  0  0  0  0  0  0  0  0  0  0  0
   -4.3870   -4.9810  -23.5880 H   0  0  0  0  0  0  0  0  0  0  0  0
   -6.4560   -2.2930  -23.9400 H   0  0  0  0  0  0  0  0  0  0  0  0
   -7.8150   -3.3010  -23.4650 H   0  0  0  0  0  0  0  0  0  0  0  0
   -7.2160   -3.6820  -25.8220 H   0  0  0  0  0  0  0  0  0  0  0  0
   -5.5690   -3.9960  -25.4110 H   0  0  0  0  0  0  0  0  0  0  0  0
   -6.4510   -6.1180  -25.7600 H   0  0  0  0  0  0  0  0  0  0  0  0
   -8.8520   -5.6070  -23.9770 H   0  0  0  0  0  0  0  0  0  0  0  0
   -8.1430   -8.0060  -24.0530 H   0  0  0  0  0  0  0  0  0  0  0  0
   -9.6610   -7.7730  -24.9170 H   0  0  0  0  0  0  0  0  0  0  0  0
   -8.1670   -7.9490  -25.8190 H   0  0  0  0  0  0  0  0  0  0  0  0
  1  2  1  0  0  0  0
  1 44  1  0  0  0  0
  1 45  1  0  0  0  0
  1 46  1  0  0  0  0
  2  3  1  0  0  0  0
  2  7  1  0  0  0  0
  2 43  1  0  0  0  0
  3  4  1  0  0  0  0
  3  5  1  0  0  0  0
  3  6  1  0  0  0  0
  7  8  1  0  0  0  0
  7 33  1  0  0  0  0
  7 42  1  0  0  0  0
  8  9  1  0  0  0  0
  8 40  1  0  0  0  0
  8 41  1  0  0  0  0
  9 10  1  0  0  0  0
  9 38  1  0  0  0  0
  9 39  1  0  0  0  0
 10 11  1  0  0  0  0
 10 32  1  0  0  0  0
 11 12  2  0  0  0  0
 11 13  1  0  0  0  0
 13 14  1  0  0  0  0
 13 30  1  0  0  0  0
 13 31  1  0  0  0  0
 14 15  2  0  0  0  0
 14 23  1  0  0  0  0
 15 16  1  0  0  0  0
 15 29  1  0  0  0  0
 16 17  2  0  0  0  0
 17 18  1  0  0  0  0
 17 28  1  0  0  0  0
 18 19  2  0  0  0  0
 18 23  1  0  0  0  0
 19 20  1  0  0  0  0
 19 27  1  0  0  0  0
 20 21  2  0  0  0  0
 20 26  1  0  0  0  0
 21 22  1  0  0  0  0
 21 25  1  0  0  0  0
 22 23  2  0  0  0  0
 22 24  1  0  0  0  0
 32 33  1  0  0  0  0
 32 36  1  0  0  0  0
 32 37  1  0  0  0  0
 33 34  1  0  0  0  0
 33 35  1  0  0  0  0
M  END
>  <MODEL>
       2

$$$$
best_conformers_48.pdb
 OpenBabel01292518153D

 46 48  0  0  0  0  0  0  0  0999 V2000
   -9.1670   -5.3760  -26.0740 C   0  0  0  0  0  0  0  0  0  0  0  0
   -8.4050   -5.9920  -24.9010 C   0  0  0  0  0  0  0  0  0  0  0  0
   -8.5990   -7.5100  -24.9120 C   0  0  0  0  0  0  0  0  0  0  0  0
   -8.1670   -7.9500  -25.8180 H   0  0  0  0  0  0  0  0  0  0  0  0
   -9.6610   -7.7730  -24.9150 H   0  0  0  0  0  0  0  0  0  0  0  0
   -8.1430   -8.0060  -24.0520 H   0  0  0  0  0  0  0  0  0  0  0  0
   -6.8980   -5.6220  -24.8850 C   0  0  0  0  0  0  0  0  0  0  0  0
   -6.5940   -4.1240  -25.0400 C   0  0  0  0  0  0  0  0  0  0  0  0
   -6.7560   -3.3310  -23.7460 C   0  0  0  0  0  0  0  0  0  0  0  0
   -5.9580   -3.8960  -22.6600 N   0  0  0  0  0  0  0  0  0  0  0  0
   -5.7910   -3.2910  -21.4390 C   0  0  0  0  0  0  0  0  0  0  0  0
   -4.9410   -3.6660  -20.6460 O   0  0  0  0  0  0  0  0  0  0  0  0
   -6.7440   -2.1330  -21.0380 C   0  0  0  0  0  0  0  0  0  0  0  0
   -6.1390   -1.2120  -20.0030 C   0  0  0  0  0  0  0  0  0  0  0  0
   -6.5050   -1.2810  -18.6820 C   0  0  0  0  0  0  0  0  0  0  0  0
   -6.0140   -0.5120  -17.6710 N   0  0  0  0  0  0  0  0  0  0  0  0
   -5.0960    0.3700  -17.9980 C   0  0  0  0  0  0  0  0  0  0  0  0
   -4.6050    0.5530  -19.3220 C   0  0  0  0  0  0  0  0  0  0  0  0
   -3.6070    1.5160  -19.6270 C   0  0  0  0  0  0  0  0  0  0  0  0
   -3.1520    1.6680  -20.9100 C   0  0  0  0  0  0  0  0  0  0  0  0
   -3.6770    0.8600  -21.9430 C   0  0  0  0  0  0  0  0  0  0  0  0
   -4.6440   -0.0770  -21.6740 C   0  0  0  0  0  0  0  0  0  0  0  0
   -5.1370   -0.2570  -20.3540 C   0  0  0  0  0  0  0  0  0  0  0  0
   -5.0340   -0.6880  -22.4830 H   0  0  0  0  0  0  0  0  0  0  0  0
   -3.3150    0.9880  -22.9590 H   0  0  0  0  0  0  0  0  0  0  0  0
   -2.3910    2.4080  -21.1460 H   0  0  0  0  0  0  0  0  0  0  0  0
   -3.2100    2.1360  -18.8260 H   0  0  0  0  0  0  0  0  0  0  0  0
   -4.6870    0.9920  -17.1990 H   0  0  0  0  0  0  0  0  0  0  0  0
   -7.2610   -1.9990  -18.3680 H   0  0  0  0  0  0  0  0  0  0  0  0
   -7.6430   -2.5910  -20.6000 H   0  0  0  0  0  0  0  0  0  0  0  0
   -7.0940   -1.5450  -21.8970 H   0  0  0  0  0  0  0  0  0  0  0  0
   -5.2590   -5.1510  -22.9470 C   0  0  0  0  0  0  0  0  0  0  0  0
   -6.1960   -6.1560  -23.6120 C   0  0  0  0  0  0  0  0  0  0  0  0
   -5.6370   -7.0690  -23.8430 H   0  0  0  0  0  0  0  0  0  0  0  0
   -6.9370   -6.4460  -22.8620 H   0  0  0  0  0  0  0  0  0  0  0  0
   -4.3870   -4.9810  -23.5880 H   0  0  0  0  0  0  0  0  0  0  0  0
   -4.8750   -5.5470  -22.0080 H   0  0  0  0  0  0  0  0  0  0  0  0
   -6.4560   -2.2930  -23.9400 H   0  0  0  0  0  0  0  0  0  0  0  0
   -7.8150   -3.3010  -23.4650 H   0  0  0  0  0  0  0  0  0  0  0  0
   -5.5690   -3.9970  -25.4110 H   0  0  0  0  0  0  0  0  0  0  0  0
   -7.2170   -3.6830  -25.8220 H   0  0  0  0  0  0  0  0  0  0  0  0
   -6.4520   -6.1190  -25.7590 H   0  0  0  0  0  0  0  0  0  0  0  0
   -8.8520   -5.6080  -23.9750 H   0  0  0  0  0  0  0  0  0  0  0  0
   -8.6430   -5.5400  -27.0210 H   0  0  0  0  0  0  0  0  0  0  0  0
  -10.1570   -5.8330  -26.1790 H   0  0  0  0  0  0  0  0  0  0  0  0
   -9.3210   -4.3000  -25.9590 H   0  0  0  0  0  0  0  0  0  0  0  0
  1  2  1  0  0  0  0
  1 44  1  0  0  0  0
  1 45  1  0  0  0  0
  1 46  1  0  0  0  0
  2  3  1  0  0  0  0
  2  7  1  0  0  0  0
  2 43  1  0  0  0  0
  3  4  1  0  0  0  0
  3  5  1  0  0  0  0
  3  6  1  0  0  0  0
  7  8  1  0  0  0  0
  7 33  1  0  0  0  0
  7 42  1  0  0  0  0
  8  9  1  0  0  0  0
  8 40  1  0  0  0  0
  8 41  1  0  0  0  0
  9 10  1  0  0  0  0
  9 38  1  0  0  0  0
  9 39  1  0  0  0  0
 10 11  1  0  0  0  0
 10 32  1  0  0  0  0
 11 12  2  0  0  0  0
 11 13  1  0  0  0  0
 13 14  1  0  0  0  0
 13 30  1  0  0  0  0
 13 31  1  0  0  0  0
 14 15  2  0  0  0  0
 14 23  1  0  0  0  0
 15 16  1  0  0  0  0
 15 29  1  0  0  0  0
 16 17  2  0  0  0  0
 17 18  1  0  0  0  0
 17 28  1  0  0  0  0
 18 19  2  0  0  0  0
 18 23  1  0  0  0  0
 19 20  1  0  0  0  0
 19 27  1  0  0  0  0
 20 21  2  0  0  0  0
 20 26  1  0  0  0  0
 21 22  1  0  0  0  0
 21 25  1  0  0  0  0
 22 23  2  0  0  0  0
 22 24  1  0  0  0  0
 32 33  1  0  0  0  0
 32 36  1  0  0  0  0
 32 37  1  0  0  0  0
 33 34  1  0  0  0  0
 33 35  1  0  0  0  0
M  END
>  <MODEL>
       3

$$$$
best_conformers_48.pdb
 OpenBabel01292518153D

 46 48  0  0  0  0  0  0  0  0999 V2000
   -8.5930   -7.5000  -24.9370 C   0  0  0  0  0  0  0  0  0  0  0  0
   -8.3960   -5.9830  -24.9230 C   0  0  0  0  0  0  0  0  0  0  0  0
   -9.1480   -5.3650  -26.1030 C   0  0  0  0  0  0  0  0  0  0  0  0
   -9.3020   -4.2890  -25.9880 H   0  0  0  0  0  0  0  0  0  0  0  0
  -10.1370   -5.8210  -26.2170 H   0  0  0  0  0  0  0  0  0  0  0  0
   -8.6150   -5.5280  -27.0450 H   0  0  0  0  0  0  0  0  0  0  0  0
   -6.8900   -5.6150  -24.8950 C   0  0  0  0  0  0  0  0  0  0  0  0
   -6.1980   -6.1520  -23.6180 C   0  0  0  0  0  0  0  0  0  0  0  0
   -5.2600   -5.1510  -22.9460 C   0  0  0  0  0  0  0  0  0  0  0  0
   -5.9560   -3.8950  -22.6610 N   0  0  0  0  0  0  0  0  0  0  0  0
   -5.7910   -3.2910  -21.4380 C   0  0  0  0  0  0  0  0  0  0  0  0
   -4.9430   -3.6670  -20.6440 O   0  0  0  0  0  0  0  0  0  0  0  0
   -6.7440   -2.1320  -21.0380 C   0  0  0  0  0  0  0  0  0  0  0  0
   -6.1390   -1.2120  -20.0030 C   0  0  0  0  0  0  0  0  0  0  0  0
   -6.5050   -1.2810  -18.6820 C   0  0  0  0  0  0  0  0  0  0  0  0
   -6.0140   -0.5120  -17.6710 N   0  0  0  0  0  0  0  0  0  0  0  0
   -5.0960    0.3700  -17.9980 C   0  0  0  0  0  0  0  0  0  0  0  0
   -4.6050    0.5530  -19.3220 C   0  0  0  0  0  0  0  0  0  0  0  0
   -3.6070    1.5160  -19.6270 C   0  0  0  0  0  0  0  0  0  0  0  0
   -3.1510    1.6680  -20.9100 C   0  0  0  0  0  0  0  0  0  0  0  0
   -3.6770    0.8600  -21.9430 C   0  0  0  0  0  0  0  0  0  0  0  0
   -4.6440   -0.0770  -21.6740 C   0  0  0  0  0  0  0  0  0  0  0  0
   -5.1370   -0.2570  -20.3540 C   0  0  0  0  0  0  0  0  0  0  0  0
   -5.0340   -0.6880  -22.4830 H   0  0  0  0  0  0  0  0  0  0  0  0
   -3.3150    0.9880  -22.9590 H   0  0  0  0  0  0  0  0  0  0  0  0
   -2.3910    2.4080  -21.1460 H   0  0  0  0  0  0  0  0  0  0  0  0
   -3.2100    2.1360  -18.8250 H   0  0  0  0  0  0  0  0  0  0  0  0
   -4.6870    0.9920  -17.1990 H   0  0  0  0  0  0  0  0  0  0  0  0
   -7.2610   -1.9990  -18.3680 H   0  0  0  0  0  0  0  0  0  0  0  0
   -7.0940   -1.5450  -21.8970 H   0  0  0  0  0  0  0  0  0  0  0  0
   -7.6430   -2.5910  -20.6000 H   0  0  0  0  0  0  0  0  0  0  0  0
   -6.7500   -3.3270  -23.7490 C   0  0  0  0  0  0  0  0  0  0  0  0
   -6.5820   -4.1160  -25.0440 C   0  0  0  0  0  0  0  0  0  0  0  0
   -7.2000   -3.6720  -25.8280 H   0  0  0  0  0  0  0  0  0  0  0  0
   -5.5550   -3.9900  -25.4100 H   0  0  0  0  0  0  0  0  0  0  0  0
   -6.4470   -2.2880  -23.9380 H   0  0  0  0  0  0  0  0  0  0  0  0
   -7.8090   -3.2970  -23.4720 H   0  0  0  0  0  0  0  0  0  0  0  0
   -4.8820   -5.5510  -22.0060 H   0  0  0  0  0  0  0  0  0  0  0  0
   -4.3850   -4.9850  -23.5830 H   0  0  0  0  0  0  0  0  0  0  0  0
   -5.6420   -7.0670  -23.8450 H   0  0  0  0  0  0  0  0  0  0  0  0
   -6.9450   -6.4390  -22.8730 H   0  0  0  0  0  0  0  0  0  0  0  0
   -6.4370   -6.1100  -25.7660 H   0  0  0  0  0  0  0  0  0  0  0  0
   -8.8510   -5.5980  -24.0010 H   0  0  0  0  0  0  0  0  0  0  0  0
   -8.1450   -7.9970  -24.0730 H   0  0  0  0  0  0  0  0  0  0  0  0
   -9.6560   -7.7610  -24.9480 H   0  0  0  0  0  0  0  0  0  0  0  0
   -8.1540   -7.9400  -25.8380 H   0  0  0  0  0  0  0  0  0  0  0  0
  1  2  1  0  0  0  0
  1 44  1  0  0  0  0
  1 45  1  0  0  0  0
  1 46  1  0  0  0  0
  2  3  1  0  0  0  0
  2  7  1  0  0  0  0
  2 43  1  0  0  0  0
  3  4  1  0  0  0  0
  3  5  1  0  0  0  0
  3  6  1  0  0  0  0
  7  8  1  0  0  0  0
  7 33  1  0  0  0  0
  7 42  1  0  0  0  0
  8  9  1  0  0  0  0
  8 40  1  0  0  0  0
  8 41  1  0  0  0  0
  9 10  1  0  0  0  0
  9 38  1  0  0  0  0
  9 39  1  0  0  0  0
 10 11  1  0  0  0  0
 10 32  1  0  0  0  0
 11 12  2  0  0  0  0
 11 13  1  0  0  0  0
 13 14  1  0  0  0  0
 13 30  1  0  0  0  0
 13 31  1  0  0  0  0
 14 15  2  0  0  0  0
 14 23  1  0  0  0  0
 15 16  1  0  0  0  0
 15 29  1  0  0  0  0
 16 17  2  0  0  0  0
 17 18  1  0  0  0  0
 17 28  1  0  0  0  0
 18 19  2  0  0  0  0
 18 23  1  0  0  0  0
 19 20  1  0  0  0  0
 19 27  1  0  0  0  0
 20 21  2  0  0  0  0
 20 26  1  0  0  0  0
 21 22  1  0  0  0  0
 21 25  1  0  0  0  0
 22 23  2  0  0  0  0
 22 24  1  0  0  0  0
 32 33  1  0  0  0  0
 32 36  1  0  0  0  0
 32 37  1  0  0  0  0
 33 34  1  0  0  0  0
 33 35  1  0  0  0  0
M  END
>  <MODEL>
       4

$$$$
best_conformers_48.pdb
 OpenBabel01292518153D

 46 48  0  0  0  0  0  0  0  0999 V2000
   -8.7040   -5.8180  -25.9670 C   0  0  0  0  0  0  0  0  0  0  0  0
   -9.5930   -4.8580  -25.1750 C   0  0  0  0  0  0  0  0  0  0  0  0
  -11.0620   -5.1610  -25.4800 C   0  0  0  0  0  0  0  0  0  0  0  0
  -11.2830   -4.9770  -26.5370 H   0  0  0  0  0  0  0  0  0  0  0  0
  -11.2970   -6.2130  -25.2890 H   0  0  0  0  0  0  0  0  0  0  0  0
  -11.7570   -4.5590  -24.8880 H   0  0  0  0  0  0  0  0  0  0  0  0
   -9.2640   -3.3640  -25.4320 C   0  0  0  0  0  0  0  0  0  0  0  0
  -10.0920   -2.4320  -24.5140 C   0  0  0  0  0  0  0  0  0  0  0  0
   -9.2880   -1.2980  -23.8800 C   0  0  0  0  0  0  0  0  0  0  0  0
   -8.1240   -1.8240  -23.1630 N   0  0  0  0  0  0  0  0  0  0  0  0
   -7.8270   -1.3500  -21.9080 C   0  0  0  0  0  0  0  0  0  0  0  0
   -8.3950   -0.3780  -21.4350 O   0  0  0  0  0  0  0  0  0  0  0  0
   -6.7780   -2.0990  -21.0470 C   0  0  0  0  0  0  0  0  0  0  0  0
   -6.1380   -1.2120  -20.0030 C   0  0  0  0  0  0  0  0  0  0  0  0
   -6.5130   -1.2740  -18.6840 C   0  0  0  0  0  0  0  0  0  0  0  0
   -6.0180   -0.5080  -17.6730 N   0  0  0  0  0  0  0  0  0  0  0  0
   -5.0950    0.3690  -17.9970 C   0  0  0  0  0  0  0  0  0  0  0  0
   -4.6070    0.5540  -19.3220 C   0  0  0  0  0  0  0  0  0  0  0  0
   -3.6120    1.5210  -19.6280 C   0  0  0  0  0  0  0  0  0  0  0  0
   -3.1680    1.6840  -20.9140 C   0  0  0  0  0  0  0  0  0  0  0  0
   -3.7040    0.8850  -21.9490 C   0  0  0  0  0  0  0  0  0  0  0  0
   -4.6640   -0.0580  -21.6790 C   0  0  0  0  0  0  0  0  0  0  0  0
   -5.1430   -0.2520  -20.3550 C   0  0  0  0  0  0  0  0  0  0  0  0
   -5.0680   -0.6560  -22.4910 H   0  0  0  0  0  0  0  0  0  0  0  0
   -3.3530    1.0240  -22.9670 H   0  0  0  0  0  0  0  0  0  0  0  0
   -2.4120    2.4290  -21.1510 H   0  0  0  0  0  0  0  0  0  0  0  0
   -3.2130    2.1380  -18.8260 H   0  0  0  0  0  0  0  0  0  0  0  0
   -4.6870    0.9910  -17.1990 H   0  0  0  0  0  0  0  0  0  0  0  0
   -7.2710   -1.9890  -18.3700 H   0  0  0  0  0  0  0  0  0  0  0  0
   -7.3120   -2.9050  -20.5240 H   0  0  0  0  0  0  0  0  0  0  0  0
   -6.0000   -2.5900  -21.6450 H   0  0  0  0  0  0  0  0  0  0  0  0
   -7.3070   -2.8050  -23.8740 C   0  0  0  0  0  0  0  0  0  0  0  0
   -7.7770   -2.9950  -25.3130 C   0  0  0  0  0  0  0  0  0  0  0  0
   -7.1530   -3.7440  -25.8070 H   0  0  0  0  0  0  0  0  0  0  0  0
   -7.5840   -2.0740  -25.8770 H   0  0  0  0  0  0  0  0  0  0  0  0
   -7.3260   -3.7680  -23.3520 H   0  0  0  0  0  0  0  0  0  0  0  0
   -6.2580   -2.4830  -23.8940 H   0  0  0  0  0  0  0  0  0  0  0  0
   -9.9030   -0.7480  -23.1690 H   0  0  0  0  0  0  0  0  0  0  0  0
   -8.9790   -0.5710  -24.6430 H   0  0  0  0  0  0  0  0  0  0  0  0
  -10.5370   -3.0060  -23.6950 H   0  0  0  0  0  0  0  0  0  0  0  0
  -10.9380   -2.0110  -25.0670 H   0  0  0  0  0  0  0  0  0  0  0  0
   -9.5480   -3.1630  -26.4750 H   0  0  0  0  0  0  0  0  0  0  0  0
   -9.4290   -5.0570  -24.1090 H   0  0  0  0  0  0  0  0  0  0  0  0
   -8.6500   -5.5330  -27.0230 H   0  0  0  0  0  0  0  0  0  0  0  0
   -7.6820   -5.8640  -25.5820 H   0  0  0  0  0  0  0  0  0  0  0  0
   -9.1060   -6.8360  -25.9380 H   0  0  0  0  0  0  0  0  0  0  0  0
  1  2  1  0  0  0  0
  1 44  1  0  0  0  0
  1 45  1  0  0  0  0
  1 46  1  0  0  0  0
  2  3  1  0  0  0  0
  2  7  1  0  0  0  0
  2 43  1  0  0  0  0
  3  4  1  0  0  0  0
  3  5  1  0  0  0  0
  3  6  1  0  0  0  0
  7  8  1  0  0  0  0
  7 33  1  0  0  0  0
  7 42  1  0  0  0  0
  8  9  1  0  0  0  0
  8 40  1  0  0  0  0
  8 41  1  0  0  0  0
  9 10  1  0  0  0  0
  9 38  1  0  0  0  0
  9 39  1  0  0  0  0
 10 11  1  0  0  0  0
 10 32  1  0  0  0  0
 11 12  2  0  0  0  0
 11 13  1  0  0  0  0
 13 14  1  0  0  0  0
 13 30  1  0  0  0  0
 13 31  1  0  0  0  0
 14 15  2  0  0  0  0
 14 23  1  0  0  0  0
 15 16  1  0  0  0  0
 15 29  1  0  0  0  0
 16 17  2  0  0  0  0
 17 18  1  0  0  0  0
 17 28  1  0  0  0  0
 18 19  2  0  0  0  0
 18 23  1  0  0  0  0
 19 20  1  0  0  0  0
 19 27  1  0  0  0  0
 20 21  2  0  0  0  0
 20 26  1  0  0  0  0
 21 22  1  0  0  0  0
 21 25  1  0  0  0  0
 22 23  2  0  0  0  0
 22 24  1  0  0  0  0
 32 33  1  0  0  0  0
 32 36  1  0  0  0  0
 32 37  1  0  0  0  0
 33 34  1  0  0  0  0
 33 35  1  0  0  0  0
M  END
>  <MODEL>
       5

$$$$
best_conformers_48.pdb
 OpenBabel01292518153D

 46 48  0  0  0  0  0  0  0  0999 V2000
   -8.7040   -5.8180  -25.9680 C   0  0  0  0  0  0  0  0  0  0  0  0
   -9.5930   -4.8580  -25.1760 C   0  0  0  0  0  0  0  0  0  0  0  0
  -11.0620   -5.1610  -25.4810 C   0  0  0  0  0  0  0  0  0  0  0  0
  -11.7570   -4.5590  -24.8880 H   0  0  0  0  0  0  0  0  0  0  0  0
  -11.2830   -4.9770  -26.5370 H   0  0  0  0  0  0  0  0  0  0  0  0
  -11.2970   -6.2130  -25.2890 H   0  0  0  0  0  0  0  0  0  0  0  0
   -9.2640   -3.3640  -25.4320 C   0  0  0  0  0  0  0  0  0  0  0  0
   -7.7770   -2.9950  -25.3130 C   0  0  0  0  0  0  0  0  0  0  0  0
   -7.3070   -2.8050  -23.8740 C   0  0  0  0  0  0  0  0  0  0  0  0
   -8.1240   -1.8240  -23.1630 N   0  0  0  0  0  0  0  0  0  0  0  0
   -7.8270   -1.3500  -21.9080 C   0  0  0  0  0  0  0  0  0  0  0  0
   -8.3950   -0.3780  -21.4350 O   0  0  0  0  0  0  0  0  0  0  0  0
   -6.7780   -2.0990  -21.0470 C   0  0  0  0  0  0  0  0  0  0  0  0
   -6.1380   -1.2120  -20.0030 C   0  0  0  0  0  0  0  0  0  0  0  0
   -6.5130   -1.2740  -18.6840 C   0  0  0  0  0  0  0  0  0  0  0  0
   -6.0180   -0.5080  -17.6730 N   0  0  0  0  0  0  0  0  0  0  0  0
   -5.0950    0.3690  -17.9970 C   0  0  0  0  0  0  0  0  0  0  0  0
   -4.6070    0.5540  -19.3220 C   0  0  0  0  0  0  0  0  0  0  0  0
   -3.6120    1.5210  -19.6280 C   0  0  0  0  0  0  0  0  0  0  0  0
   -3.1680    1.6840  -20.9140 C   0  0  0  0  0  0  0  0  0  0  0  0
   -3.7040    0.8850  -21.9490 C   0  0  0  0  0  0  0  0  0  0  0  0
   -4.6640   -0.0580  -21.6790 C   0  0  0  0  0  0  0  0  0  0  0  0
   -5.1430   -0.2520  -20.3550 C   0  0  0  0  0  0  0  0  0  0  0  0
   -5.0680   -0.6560  -22.4910 H   0  0  0  0  0  0  0  0  0  0  0  0
   -3.3530    1.0240  -22.9670 H   0  0  0  0  0  0  0  0  0  0  0  0
   -2.4120    2.4290  -21.1510 H   0  0  0  0  0  0  0  0  0  0  0  0
   -3.2130    2.1380  -18.8260 H   0  0  0  0  0  0  0  0  0  0  0  0
   -4.6870    0.9910  -17.1990 H   0  0  0  0  0  0  0  0  0  0  0  0
   -7.2710   -1.9890  -18.3700 H   0  0  0  0  0  0  0  0  0  0  0  0
   -6.0000   -2.5900  -21.6450 H   0  0  0  0  0  0  0  0  0  0  0  0
   -7.3120   -2.9050  -20.5240 H   0  0  0  0  0  0  0  0  0  0  0  0
   -9.2880   -1.2980  -23.8800 C   0  0  0  0  0  0  0  0  0  0  0  0
  -10.0920   -2.4330  -24.5140 C   0  0  0  0  0  0  0  0  0  0  0  0
  -10.5360   -3.0070  -23.6950 H   0  0  0  0  0  0  0  0  0  0  0  0
  -10.9380   -2.0110  -25.0670 H   0  0  0  0  0  0  0  0  0  0  0  0
   -8.9790   -0.5720  -24.6430 H   0  0  0  0  0  0  0  0  0  0  0  0
   -9.9030   -0.7480  -23.1680 H   0  0  0  0  0  0  0  0  0  0  0  0
   -7.3260   -3.7680  -23.3520 H   0  0  0  0  0  0  0  0  0  0  0  0
   -6.2580   -2.4830  -23.8940 H   0  0  0  0  0  0  0  0  0  0  0  0
   -7.1530   -3.7440  -25.8070 H   0  0  0  0  0  0  0  0  0  0  0  0
   -7.5840   -2.0740  -25.8770 H   0  0  0  0  0  0  0  0  0  0  0  0
   -9.5480   -3.1630  -26.4750 H   0  0  0  0  0  0  0  0  0  0  0  0
   -9.4280   -5.0580  -24.1100 H   0  0  0  0  0  0  0  0  0  0  0  0
   -7.6820   -5.8640  -25.5820 H   0  0  0  0  0  0  0  0  0  0  0  0
   -8.6500   -5.5320  -27.0230 H   0  0  0  0  0  0  0  0  0  0  0  0
   -9.1050   -6.8360  -25.9380 H   0  0  0  0  0  0  0  0  0  0  0  0
  1  2  1  0  0  0  0
  1 44  1  0  0  0  0
  1 45  1  0  0  0  0
  1 46  1  0  0  0  0
  2  3  1  0  0  0  0
  2  7  1  0  0  0  0
  2 43  1  0  0  0  0
  3  4  1  0  0  0  0
  3  5  1  0  0  0  0
  3  6  1  0  0  0  0
  7  8  1  0  0  0  0
  7 33  1  0  0  0  0
  7 42  1  0  0  0  0
  8  9  1  0  0  0  0
  8 40  1  0  0  0  0
  8 41  1  0  0  0  0
  9 10  1  0  0  0  0
  9 38  1  0  0  0  0
  9 39  1  0  0  0  0
 10 11  1  0  0  0  0
 10 32  1  0  0  0  0
 11 12  2  0  0  0  0
 11 13  1  0  0  0  0
 13 14  1  0  0  0  0
 13 30  1  0  0  0  0
 13 31  1  0  0  0  0
 14 15  2  0  0  0  0
 14 23  1  0  0  0  0
 15 16  1  0  0  0  0
 15 29  1  0  0  0  0
 16 17  2  0  0  0  0
 17 18  1  0  0  0  0
 17 28  1  0  0  0  0
 18 19  2  0  0  0  0
 18 23  1  0  0  0  0
 19 20  1  0  0  0  0
 19 27  1  0  0  0  0
 20 21  2  0  0  0  0
 20 26  1  0  0  0  0
 21 22  1  0  0  0  0
 21 25  1  0  0  0  0
 22 23  2  0  0  0  0
 22 24  1  0  0  0  0
 32 33  1  0  0  0  0
 32 36  1  0  0  0  0
 32 37  1  0  0  0  0
 33 34  1  0  0  0  0
 33 35  1  0  0  0  0
M  END
>  <MODEL>
       6

$$$$
best_conformers_48.pdb
 OpenBabel01292518153D

 46 48  0  0  0  0  0  0  0  0999 V2000
   -4.5130    0.6920  -26.3980 C   0  0  0  0  0  0  0  0  0  0  0  0
   -5.8910    0.2610  -26.9030 C   0  0  0  0  0  0  0  0  0  0  0  0
   -6.4980    1.3620  -27.7780 C   0  0  0  0  0  0  0  0  0  0  0  0
   -7.4800    1.0780  -28.1730 H   0  0  0  0  0  0  0  0  0  0  0  0
   -6.6230    2.3000  -27.2240 H   0  0  0  0  0  0  0  0  0  0  0  0
   -5.8480    1.5820  -28.6320 H   0  0  0  0  0  0  0  0  0  0  0  0
   -6.8590   -0.1890  -25.7860 C   0  0  0  0  0  0  0  0  0  0  0  0
   -7.0510    0.8270  -24.6600 C   0  0  0  0  0  0  0  0  0  0  0  0
   -8.0540    0.3310  -23.6190 C   0  0  0  0  0  0  0  0  0  0  0  0
   -7.6410   -0.9700  -23.1090 N   0  0  0  0  0  0  0  0  0  0  0  0
   -7.8800   -1.2610  -21.7620 C   0  0  0  0  0  0  0  0  0  0  0  0
   -8.8260   -0.8090  -21.1540 O   0  0  0  0  0  0  0  0  0  0  0  0
   -6.8060   -2.0900  -21.0350 C   0  0  0  0  0  0  0  0  0  0  0  0
   -6.1320   -1.2160  -19.9960 C   0  0  0  0  0  0  0  0  0  0  0  0
   -6.5110   -1.2760  -18.6800 C   0  0  0  0  0  0  0  0  0  0  0  0
   -6.0160   -0.5060  -17.6730 N   0  0  0  0  0  0  0  0  0  0  0  0
   -5.0940    0.3700  -18.0000 C   0  0  0  0  0  0  0  0  0  0  0  0
   -4.6070    0.5550  -19.3220 C   0  0  0  0  0  0  0  0  0  0  0  0
   -3.6180    1.5250  -19.6300 C   0  0  0  0  0  0  0  0  0  0  0  0
   -3.1750    1.6920  -20.9150 C   0  0  0  0  0  0  0  0  0  0  0  0
   -3.7070    0.8880  -21.9480 C   0  0  0  0  0  0  0  0  0  0  0  0
   -4.6630   -0.0610  -21.6780 C   0  0  0  0  0  0  0  0  0  0  0  0
   -5.1430   -0.2540  -20.3560 C   0  0  0  0  0  0  0  0  0  0  0  0
   -5.0550   -0.6700  -22.4860 H   0  0  0  0  0  0  0  0  0  0  0  0
   -3.3490    1.0280  -22.9640 H   0  0  0  0  0  0  0  0  0  0  0  0
   -2.4240    2.4430  -21.1470 H   0  0  0  0  0  0  0  0  0  0  0  0
   -3.2240    2.1420  -18.8260 H   0  0  0  0  0  0  0  0  0  0  0  0
   -4.6890    0.9890  -17.1970 H   0  0  0  0  0  0  0  0  0  0  0  0
   -7.2700   -1.9880  -18.3630 H   0  0  0  0  0  0  0  0  0  0  0  0
   -6.0710   -2.5070  -21.7360 H   0  0  0  0  0  0  0  0  0  0  0  0
   -7.3110   -2.9170  -20.5230 H   0  0  0  0  0  0  0  0  0  0  0  0
   -7.4640   -1.9950  -24.1280 C   0  0  0  0  0  0  0  0  0  0  0  0
   -6.4670   -1.5410  -25.1860 C   0  0  0  0  0  0  0  0  0  0  0  0
   -6.3970   -2.2990  -25.9750 H   0  0  0  0  0  0  0  0  0  0  0  0
   -5.4750   -1.4780  -24.7260 H   0  0  0  0  0  0  0  0  0  0  0  0
   -7.1330   -2.9120  -23.6440 H   0  0  0  0  0  0  0  0  0  0  0  0
   -8.4230   -2.2350  -24.6210 H   0  0  0  0  0  0  0  0  0  0  0  0
   -8.0940    1.0150  -22.7720 H   0  0  0  0  0  0  0  0  0  0  0  0
   -9.0670    0.3070  -24.0490 H   0  0  0  0  0  0  0  0  0  0  0  0
   -6.0980    1.0180  -24.1520 H   0  0  0  0  0  0  0  0  0  0  0  0
   -7.3790    1.7910  -25.0590 H   0  0  0  0  0  0  0  0  0  0  0  0
   -7.8410   -0.3270  -26.2650 H   0  0  0  0  0  0  0  0  0  0  0  0
   -5.7400   -0.6130  -27.5510 H   0  0  0  0  0  0  0  0  0  0  0  0
   -3.8370    0.8900  -27.2370 H   0  0  0  0  0  0  0  0  0  0  0  0
   -4.0400   -0.0690  -25.7680 H   0  0  0  0  0  0  0  0  0  0  0  0
   -4.5710    1.6170  -25.8140 H   0  0  0  0  0  0  0  0  0  0  0  0
  1  2  1  0  0  0  0
  1 44  1  0  0  0  0
  1 45  1  0  0  0  0
  1 46  1  0  0  0  0
  2  3  1  0  0  0  0
  2  7  1  0  0  0  0
  2 43  1  0  0  0  0
  3  4  1  0  0  0  0
  3  5  1  0  0  0  0
  3  6  1  0  0  0  0
  7  8  1  0  0  0  0
  7 33  1  0  0  0  0
  7 42  1  0  0  0  0
  8  9  1  0  0  0  0
  8 40  1  0  0  0  0
  8 41  1  0  0  0  0
  9 10  1  0  0  0  0
  9 38  1  0  0  0  0
  9 39  1  0  0  0  0
 10 11  1  0  0  0  0
 10 32  1  0  0  0  0
 11 12  2  0  0  0  0
 11 13  1  0  0  0  0
 13 14  1  0  0  0  0
 13 30  1  0  0  0  0
 13 31  1  0  0  0  0
 14 15  2  0  0  0  0
 14 23  1  0  0  0  0
 15 16  1  0  0  0  0
 15 29  1  0  0  0  0
 16 17  2  0  0  0  0
 17 18  1  0  0  0  0
 17 28  1  0  0  0  0
 18 19  2  0  0  0  0
 18 23  1  0  0  0  0
 19 20  1  0  0  0  0
 19 27  1  0  0  0  0
 20 21  2  0  0  0  0
 20 26  1  0  0  0  0
 21 22  1  0  0  0  0
 21 25  1  0  0  0  0
 22 23  2  0  0  0  0
 22 24  1  0  0  0  0
 32 33  1  0  0  0  0
 32 36  1  0  0  0  0
 32 37  1  0  0  0  0
 33 34  1  0  0  0  0
 33 35  1  0  0  0  0
M  END
>  <MODEL>
       7

$$$$
best_conformers_48.pdb
 OpenBabel01292518153D

 46 48  0  0  0  0  0  0  0  0999 V2000
   -4.5130    0.6920  -26.3980 C   0  0  0  0  0  0  0  0  0  0  0  0
   -5.8910    0.2610  -26.9030 C   0  0  0  0  0  0  0  0  0  0  0  0
   -6.4980    1.3620  -27.7780 C   0  0  0  0  0  0  0  0  0  0  0  0
   -7.4800    1.0780  -28.1730 H   0  0  0  0  0  0  0  0  0  0  0  0
   -5.8480    1.5820  -28.6320 H   0  0  0  0  0  0  0  0  0  0  0  0
   -6.6230    2.3000  -27.2240 H   0  0  0  0  0  0  0  0  0  0  0  0
   -6.8590   -0.1890  -25.7860 C   0  0  0  0  0  0  0  0  0  0  0  0
   -6.4670   -1.5410  -25.1860 C   0  0  0  0  0  0  0  0  0  0  0  0
   -7.4640   -1.9950  -24.1280 C   0  0  0  0  0  0  0  0  0  0  0  0
   -7.6410   -0.9700  -23.1090 N   0  0  0  0  0  0  0  0  0  0  0  0
   -7.8800   -1.2610  -21.7620 C   0  0  0  0  0  0  0  0  0  0  0  0
   -8.8260   -0.8090  -21.1540 O   0  0  0  0  0  0  0  0  0  0  0  0
   -6.8060   -2.0900  -21.0350 C   0  0  0  0  0  0  0  0  0  0  0  0
   -6.1320   -1.2160  -19.9960 C   0  0  0  0  0  0  0  0  0  0  0  0
   -6.5110   -1.2760  -18.6800 C   0  0  0  0  0  0  0  0  0  0  0  0
   -6.0160   -0.5060  -17.6730 N   0  0  0  0  0  0  0  0  0  0  0  0
   -5.0940    0.3700  -18.0000 C   0  0  0  0  0  0  0  0  0  0  0  0
   -4.6070    0.5550  -19.3220 C   0  0  0  0  0  0  0  0  0  0  0  0
   -3.6180    1.5250  -19.6300 C   0  0  0  0  0  0  0  0  0  0  0  0
   -3.1750    1.6920  -20.9150 C   0  0  0  0  0  0  0  0  0  0  0  0
   -3.7070    0.8880  -21.9480 C   0  0  0  0  0  0  0  0  0  0  0  0
   -4.6630   -0.0610  -21.6780 C   0  0  0  0  0  0  0  0  0  0  0  0
   -5.1430   -0.2540  -20.3560 C   0  0  0  0  0  0  0  0  0  0  0  0
   -5.0550   -0.6700  -22.4860 H   0  0  0  0  0  0  0  0  0  0  0  0
   -3.3490    1.0280  -22.9640 H   0  0  0  0  0  0  0  0  0  0  0  0
   -2.4240    2.4430  -21.1470 H   0  0  0  0  0  0  0  0  0  0  0  0
   -3.2240    2.1420  -18.8260 H   0  0  0  0  0  0  0  0  0  0  0  0
   -4.6890    0.9890  -17.1970 H   0  0  0  0  0  0  0  0  0  0  0  0
   -7.2700   -1.9880  -18.3630 H   0  0  0  0  0  0  0  0  0  0  0  0
   -7.3110   -2.9170  -20.5230 H   0  0  0  0  0  0  0  0  0  0  0  0
   -6.0710   -2.5070  -21.7360 H   0  0  0  0  0  0  0  0  0  0  0  0
   -8.0540    0.3310  -23.6190 C   0  0  0  0  0  0  0  0  0  0  0  0
   -7.0510    0.8280  -24.6600 C   0  0  0  0  0  0  0  0  0  0  0  0
   -7.3790    1.7910  -25.0590 H   0  0  0  0  0  0  0  0  0  0  0  0
   -6.0980    1.0180  -24.1520 H   0  0  0  0  0  0  0  0  0  0  0  0
   -8.0940    1.0150  -22.7720 H   0  0  0  0  0  0  0  0  0  0  0  0
   -9.0670    0.3070  -24.0490 H   0  0  0  0  0  0  0  0  0  0  0  0
   -8.4230   -2.2350  -24.6210 H   0  0  0  0  0  0  0  0  0  0  0  0
   -7.1330   -2.9120  -23.6440 H   0  0  0  0  0  0  0  0  0  0  0  0
   -6.3970   -2.2990  -25.9750 H   0  0  0  0  0  0  0  0  0  0  0  0
   -5.4750   -1.4780  -24.7260 H   0  0  0  0  0  0  0  0  0  0  0  0
   -7.8410   -0.3270  -26.2650 H   0  0  0  0  0  0  0  0  0  0  0  0
   -5.7400   -0.6130  -27.5510 H   0  0  0  0  0  0  0  0  0  0  0  0
   -3.8370    0.8900  -27.2370 H   0  0  0  0  0  0  0  0  0  0  0  0
   -4.5710    1.6170  -25.8130 H   0  0  0  0  0  0  0  0  0  0  0  0
   -4.0400   -0.0690  -25.7680 H   0  0  0  0  0  0  0  0  0  0  0  0
  1  2  1  0  0  0  0
  1 44  1  0  0  0  0
  1 45  1  0  0  0  0
  1 46  1  0  0  0  0
  2  3  1  0  0  0  0
  2  7  1  0  0  0  0
  2 43  1  0  0  0  0
  3  4  1  0  0  0  0
  3  5  1  0  0  0  0
  3  6  1  0  0  0  0
  7  8  1  0  0  0  0
  7 33  1  0  0  0  0
  7 42  1  0  0  0  0
  8  9  1  0  0  0  0
  8 40  1  0  0  0  0
  8 41  1  0  0  0  0
  9 10  1  0  0  0  0
  9 38  1  0  0  0  0
  9 39  1  0  0  0  0
 10 11  1  0  0  0  0
 10 32  1  0  0  0  0
 11 12  2  0  0  0  0
 11 13  1  0  0  0  0
 13 14  1  0  0  0  0
 13 30  1  0  0  0  0
 13 31  1  0  0  0  0
 14 15  2  0  0  0  0
 14 23  1  0  0  0  0
 15 16  1  0  0  0  0
 15 29  1  0  0  0  0
 16 17  2  0  0  0  0
 17 18  1  0  0  0  0
 17 28  1  0  0  0  0
 18 19  2  0  0  0  0
 18 23  1  0  0  0  0
 19 20  1  0  0  0  0
 19 27  1  0  0  0  0
 20 21  2  0  0  0  0
 20 26  1  0  0  0  0
 21 22  1  0  0  0  0
 21 25  1  0  0  0  0
 22 23  2  0  0  0  0
 22 24  1  0  0  0  0
 32 33  1  0  0  0  0
 32 36  1  0  0  0  0
 32 37  1  0  0  0  0
 33 34  1  0  0  0  0
 33 35  1  0  0  0  0
M  END
>  <MODEL>
       8

$$$$
best_conformers_48.pdb
 OpenBabel01292518153D

 46 48  0  0  0  0  0  0  0  0999 V2000
   -6.4980    1.3620  -27.7780 C   0  0  0  0  0  0  0  0  0  0  0  0
   -5.8920    0.2610  -26.9030 C   0  0  0  0  0  0  0  0  0  0  0  0
   -4.5130    0.6920  -26.3980 C   0  0  0  0  0  0  0  0  0  0  0  0
   -3.8370    0.8900  -27.2370 H   0  0  0  0  0  0  0  0  0  0  0  0
   -4.0400   -0.0690  -25.7690 H   0  0  0  0  0  0  0  0  0  0  0  0
   -4.5710    1.6170  -25.8140 H   0  0  0  0  0  0  0  0  0  0  0  0
   -6.8590   -0.1890  -25.7860 C   0  0  0  0  0  0  0  0  0  0  0  0
   -6.4670   -1.5410  -25.1860 C   0  0  0  0  0  0  0  0  0  0  0  0
   -7.4640   -1.9950  -24.1280 C   0  0  0  0  0  0  0  0  0  0  0  0
   -7.6410   -0.9700  -23.1090 N   0  0  0  0  0  0  0  0  0  0  0  0
   -7.8800   -1.2610  -21.7620 C   0  0  0  0  0  0  0  0  0  0  0  0
   -8.8260   -0.8090  -21.1540 O   0  0  0  0  0  0  0  0  0  0  0  0
   -6.8060   -2.0900  -21.0350 C   0  0  0  0  0  0  0  0  0  0  0  0
   -6.1320   -1.2160  -19.9960 C   0  0  0  0  0  0  0  0  0  0  0  0
   -6.5110   -1.2760  -18.6800 C   0  0  0  0  0  0  0  0  0  0  0  0
   -6.0160   -0.5060  -17.6730 N   0  0  0  0  0  0  0  0  0  0  0  0
   -5.0940    0.3700  -18.0000 C   0  0  0  0  0  0  0  0  0  0  0  0
   -4.6070    0.5550  -19.3220 C   0  0  0  0  0  0  0  0  0  0  0  0
   -3.6180    1.5250  -19.6300 C   0  0  0  0  0  0  0  0  0  0  0  0
   -3.1750    1.6920  -20.9150 C   0  0  0  0  0  0  0  0  0  0  0  0
   -3.7070    0.8880  -21.9480 C   0  0  0  0  0  0  0  0  0  0  0  0
   -4.6630   -0.0610  -21.6780 C   0  0  0  0  0  0  0  0  0  0  0  0
   -5.1430   -0.2540  -20.3560 C   0  0  0  0  0  0  0  0  0  0  0  0
   -5.0550   -0.6700  -22.4860 H   0  0  0  0  0  0  0  0  0  0  0  0
   -3.3490    1.0280  -22.9640 H   0  0  0  0  0  0  0  0  0  0  0  0
   -2.4240    2.4430  -21.1470 H   0  0  0  0  0  0  0  0  0  0  0  0
   -3.2240    2.1420  -18.8260 H   0  0  0  0  0  0  0  0  0  0  0  0
   -4.6890    0.9890  -17.1970 H   0  0  0  0  0  0  0  0  0  0  0  0
   -7.2700   -1.9880  -18.3630 H   0  0  0  0  0  0  0  0  0  0  0  0
   -6.0710   -2.5070  -21.7360 H   0  0  0  0  0  0  0  0  0  0  0  0
   -7.3110   -2.9170  -20.5230 H   0  0  0  0  0  0  0  0  0  0  0  0
   -8.0540    0.3310  -23.6190 C   0  0  0  0  0  0  0  0  0  0  0  0
   -7.0510    0.8270  -24.6600 C   0  0  0  0  0  0  0  0  0  0  0  0
   -6.0980    1.0180  -24.1520 H   0  0  0  0  0  0  0  0  0  0  0  0
   -7.3800    1.7910  -25.0590 H   0  0  0  0  0  0  0  0  0  0  0  0
   -9.0670    0.3070  -24.0490 H   0  0  0  0  0  0  0  0  0  0  0  0
   -8.0940    1.0150  -22.7720 H   0  0  0  0  0  0  0  0  0  0  0  0
   -7.1330   -2.9120  -23.6440 H   0  0  0  0  0  0  0  0  0  0  0  0
   -8.4230   -2.2350  -24.6210 H   0  0  0  0  0  0  0  0  0  0  0  0
   -5.4750   -1.4780  -24.7260 H   0  0  0  0  0  0  0  0  0  0  0  0
   -6.3970   -2.2990  -25.9750 H   0  0  0  0  0  0  0  0  0  0  0  0
   -7.8410   -0.3270  -26.2650 H   0  0  0  0  0  0  0  0  0  0  0  0
   -5.7400   -0.6130  -27.5510 H   0  0  0  0  0  0  0  0  0  0  0  0
   -7.4800    1.0780  -28.1730 H   0  0  0  0  0  0  0  0  0  0  0  0
   -6.6230    2.3000  -27.2240 H   0  0  0  0  0  0  0  0  0  0  0  0
   -5.8480    1.5820  -28.6320 H   0  0  0  0  0  0  0  0  0  0  0  0
  1  2  1  0  0  0  0
  1 44  1  0  0  0  0
  1 45  1  0  0  0  0
  1 46  1  0  0  0  0
  2  3  1  0  0  0  0
  2  7  1  0  0  0  0
  2 43  1  0  0  0  0
  3  4  1  0  0  0  0
  3  5  1  0  0  0  0
  3  6  1  0  0  0  0
  7  8  1  0  0  0  0
  7 33  1  0  0  0  0
  7 42  1  0  0  0  0
  8  9  1  0  0  0  0
  8 40  1  0  0  0  0
  8 41  1  0  0  0  0
  9 10  1  0  0  0  0
  9 38  1  0  0  0  0
  9 39  1  0  0  0  0
 10 11  1  0  0  0  0
 10 32  1  0  0  0  0
 11 12  2  0  0  0  0
 11 13  1  0  0  0  0
 13 14  1  0  0  0  0
 13 30  1  0  0  0  0
 13 31  1  0  0  0  0
 14 15  2  0  0  0  0
 14 23  1  0  0  0  0
 15 16  1  0  0  0  0
 15 29  1  0  0  0  0
 16 17  2  0  0  0  0
 17 18  1  0  0  0  0
 17 28  1  0  0  0  0
 18 19  2  0  0  0  0
 18 23  1  0  0  0  0
 19 20  1  0  0  0  0
 19 27  1  0  0  0  0
 20 21  2  0  0  0  0
 20 26  1  0  0  0  0
 21 22  1  0  0  0  0
 21 25  1  0  0  0  0
 22 23  2  0  0  0  0
 22 24  1  0  0  0  0
 32 33  1  0  0  0  0
 32 36  1  0  0  0  0
 32 37  1  0  0  0  0
 33 34  1  0  0  0  0
 33 35  1  0  0  0  0
M  END
>  <MODEL>
       9

$$$$
best_conformers_48.pdb
 OpenBabel01292518153D

 46 48  0  0  0  0  0  0  0  0999 V2000
   -5.5000   -1.0920  -27.9830 C   0  0  0  0  0  0  0  0  0  0  0  0
   -5.7280   -0.0120  -26.9180 C   0  0  0  0  0  0  0  0  0  0  0  0
   -6.0630    1.3200  -27.6010 C   0  0  0  0  0  0  0  0  0  0  0  0
   -6.0050    2.1710  -26.9160 H   0  0  0  0  0  0  0  0  0  0  0  0
   -5.3680    1.5170  -28.4260 H   0  0  0  0  0  0  0  0  0  0  0  0
   -7.0710    1.3030  -28.0330 H   0  0  0  0  0  0  0  0  0  0  0  0
   -6.7940   -0.4260  -25.8800 C   0  0  0  0  0  0  0  0  0  0  0  0
   -7.0310    0.6480  -24.8130 C   0  0  0  0  0  0  0  0  0  0  0  0
   -8.0340    0.2130  -23.7440 C   0  0  0  0  0  0  0  0  0  0  0  0
   -7.6250   -1.0530  -23.1530 N   0  0  0  0  0  0  0  0  0  0  0  0
   -7.8560   -1.2620  -21.7900 C   0  0  0  0  0  0  0  0  0  0  0  0
   -8.7790   -0.7490  -21.1960 O   0  0  0  0  0  0  0  0  0  0  0  0
   -6.8010   -2.0910  -21.0340 C   0  0  0  0  0  0  0  0  0  0  0  0
   -6.1300   -1.2170  -19.9940 C   0  0  0  0  0  0  0  0  0  0  0  0
   -6.5110   -1.2760  -18.6800 C   0  0  0  0  0  0  0  0  0  0  0  0
   -6.0170   -0.5060  -17.6720 N   0  0  0  0  0  0  0  0  0  0  0  0
   -5.0950    0.3690  -17.9990 C   0  0  0  0  0  0  0  0  0  0  0  0
   -4.6060    0.5540  -19.3210 C   0  0  0  0  0  0  0  0  0  0  0  0
   -3.6180    1.5230  -19.6300 C   0  0  0  0  0  0  0  0  0  0  0  0
   -3.1750    1.6890  -20.9150 C   0  0  0  0  0  0  0  0  0  0  0  0
   -3.7070    0.8870  -21.9510 C   0  0  0  0  0  0  0  0  0  0  0  0
   -4.6630   -0.0610  -21.6780 C   0  0  0  0  0  0  0  0  0  0  0  0
   -5.1400   -0.2550  -20.3540 C   0  0  0  0  0  0  0  0  0  0  0  0
   -5.0540   -0.6680  -22.4860 H   0  0  0  0  0  0  0  0  0  0  0  0
   -3.3530    1.0260  -22.9690 H   0  0  0  0  0  0  0  0  0  0  0  0
   -2.4230    2.4390  -21.1490 H   0  0  0  0  0  0  0  0  0  0  0  0
   -3.2230    2.1410  -18.8260 H   0  0  0  0  0  0  0  0  0  0  0  0
   -4.6890    0.9890  -17.1970 H   0  0  0  0  0  0  0  0  0  0  0  0
   -7.2710   -1.9890  -18.3640 H   0  0  0  0  0  0  0  0  0  0  0  0
   -7.3210   -2.9100  -20.5240 H   0  0  0  0  0  0  0  0  0  0  0  0
   -6.0610   -2.5250  -21.7190 H   0  0  0  0  0  0  0  0  0  0  0  0
   -7.4620   -2.1320  -24.1170 C   0  0  0  0  0  0  0  0  0  0  0  0
   -6.4540   -1.7550  -25.1960 C   0  0  0  0  0  0  0  0  0  0  0  0
   -5.4610   -1.6810  -24.7380 H   0  0  0  0  0  0  0  0  0  0  0  0
   -6.4040   -2.5670  -25.9280 H   0  0  0  0  0  0  0  0  0  0  0  0
   -7.1510   -3.0300  -23.5850 H   0  0  0  0  0  0  0  0  0  0  0  0
   -8.4260   -2.3770  -24.5980 H   0  0  0  0  0  0  0  0  0  0  0  0
   -9.0460    0.1570  -24.1740 H   0  0  0  0  0  0  0  0  0  0  0  0
   -8.0810    0.9470  -22.9390 H   0  0  0  0  0  0  0  0  0  0  0  0
   -6.0770    0.8890  -24.3250 H   0  0  0  0  0  0  0  0  0  0  0  0
   -7.3840    1.5770  -25.2690 H   0  0  0  0  0  0  0  0  0  0  0  0
   -7.7420   -0.5640  -26.4250 H   0  0  0  0  0  0  0  0  0  0  0  0
   -4.7800    0.1240  -26.3780 H   0  0  0  0  0  0  0  0  0  0  0  0
   -4.8460   -0.7190  -28.7790 H   0  0  0  0  0  0  0  0  0  0  0  0
   -5.0340   -1.9940  -27.5750 H   0  0  0  0  0  0  0  0  0  0  0  0
   -6.4430   -1.3870  -28.4580 H   0  0  0  0  0  0  0  0  0  0  0  0
  1  2  1  0  0  0  0
  1 44  1  0  0  0  0
  1 45  1  0  0  0  0
  1 46  1  0  0  0  0
  2  3  1  0  0  0  0
  2  7  1  0  0  0  0
  2 43  1  0  0  0  0
  3  4  1  0  0  0  0
  3  5  1  0  0  0  0
  3  6  1  0  0  0  0
  7  8  1  0  0  0  0
  7 33  1  0  0  0  0
  7 42  1  0  0  0  0
  8  9  1  0  0  0  0
  8 40  1  0  0  0  0
  8 41  1  0  0  0  0
  9 10  1  0  0  0  0
  9 38  1  0  0  0  0
  9 39  1  0  0  0  0
 10 11  1  0  0  0  0
 10 32  1  0  0  0  0
 11 12  2  0  0  0  0
 11 13  1  0  0  0  0
 13 14  1  0  0  0  0
 13 30  1  0  0  0  0
 13 31  1  0  0  0  0
 14 15  2  0  0  0  0
 14 23  1  0  0  0  0
 15 16  1  0  0  0  0
 15 29  1  0  0  0  0
 16 17  2  0  0  0  0
 17 18  1  0  0  0  0
 17 28  1  0  0  0  0
 18 19  2  0  0  0  0
 18 23  1  0  0  0  0
 19 20  1  0  0  0  0
 19 27  1  0  0  0  0
 20 21  2  0  0  0  0
 20 26  1  0  0  0  0
 21 22  1  0  0  0  0
 21 25  1  0  0  0  0
 22 23  2  0  0  0  0
 22 24  1  0  0  0  0
 32 33  1  0  0  0  0
 32 36  1  0  0  0  0
 32 37  1  0  0  0  0
 33 34  1  0  0  0  0
 33 35  1  0  0  0  0
M  END
>  <MODEL>
      10

$$$$
best_conformers_48.pdb
 OpenBabel01292518153D

 46 48  0  0  0  0  0  0  0  0999 V2000
   -6.0630    1.3190  -27.6020 C   0  0  0  0  0  0  0  0  0  0  0  0
   -5.7280   -0.0120  -26.9180 C   0  0  0  0  0  0  0  0  0  0  0  0
   -5.5000   -1.0920  -27.9830 C   0  0  0  0  0  0  0  0  0  0  0  0
   -4.8470   -0.7190  -28.7790 H   0  0  0  0  0  0  0  0  0  0  0  0
   -5.0340   -1.9950  -27.5750 H   0  0  0  0  0  0  0  0  0  0  0  0
   -6.4430   -1.3870  -28.4580 H   0  0  0  0  0  0  0  0  0  0  0  0
   -6.7940   -0.4270  -25.8800 C   0  0  0  0  0  0  0  0  0  0  0  0
   -6.4540   -1.7550  -25.1960 C   0  0  0  0  0  0  0  0  0  0  0  0
   -7.4620   -2.1320  -24.1170 C   0  0  0  0  0  0  0  0  0  0  0  0
   -7.6250   -1.0530  -23.1530 N   0  0  0  0  0  0  0  0  0  0  0  0
   -7.8560   -1.2620  -21.7900 C   0  0  0  0  0  0  0  0  0  0  0  0
   -8.7790   -0.7490  -21.1960 O   0  0  0  0  0  0  0  0  0  0  0  0
   -6.8010   -2.0910  -21.0340 C   0  0  0  0  0  0  0  0  0  0  0  0
   -6.1300   -1.2170  -19.9940 C   0  0  0  0  0  0  0  0  0  0  0  0
   -6.5110   -1.2760  -18.6800 C   0  0  0  0  0  0  0  0  0  0  0  0
   -6.0170   -0.5060  -17.6720 N   0  0  0  0  0  0  0  0  0  0  0  0
   -5.0950    0.3690  -17.9990 C   0  0  0  0  0  0  0  0  0  0  0  0
   -4.6060    0.5540  -19.3210 C   0  0  0  0  0  0  0  0  0  0  0  0
   -3.6170    1.5230  -19.6300 C   0  0  0  0  0  0  0  0  0  0  0  0
   -3.1750    1.6890  -20.9150 C   0  0  0  0  0  0  0  0  0  0  0  0
   -3.7070    0.8870  -21.9510 C   0  0  0  0  0  0  0  0  0  0  0  0
   -4.6630   -0.0610  -21.6780 C   0  0  0  0  0  0  0  0  0  0  0  0
   -5.1400   -0.2550  -20.3540 C   0  0  0  0  0  0  0  0  0  0  0  0
   -5.0540   -0.6680  -22.4860 H   0  0  0  0  0  0  0  0  0  0  0  0
   -3.3530    1.0260  -22.9690 H   0  0  0  0  0  0  0  0  0  0  0  0
   -2.4230    2.4390  -21.1490 H   0  0  0  0  0  0  0  0  0  0  0  0
   -3.2230    2.1410  -18.8260 H   0  0  0  0  0  0  0  0  0  0  0  0
   -4.6890    0.9890  -17.1970 H   0  0  0  0  0  0  0  0  0  0  0  0
   -7.2710   -1.9890  -18.3640 H   0  0  0  0  0  0  0  0  0  0  0  0
   -7.3210   -2.9100  -20.5240 H   0  0  0  0  0  0  0  0  0  0  0  0
   -6.0610   -2.5250  -21.7190 H   0  0  0  0  0  0  0  0  0  0  0  0
   -8.0340    0.2130  -23.7440 C   0  0  0  0  0  0  0  0  0  0  0  0
   -7.0310    0.6470  -24.8130 C   0  0  0  0  0  0  0  0  0  0  0  0
   -6.0770    0.8890  -24.3250 H   0  0  0  0  0  0  0  0  0  0  0  0
   -7.3840    1.5760  -25.2690 H   0  0  0  0  0  0  0  0  0  0  0  0
   -9.0460    0.1570  -24.1740 H   0  0  0  0  0  0  0  0  0  0  0  0
   -8.0810    0.9470  -22.9390 H   0  0  0  0  0  0  0  0  0  0  0  0
   -7.1510   -3.0300  -23.5850 H   0  0  0  0  0  0  0  0  0  0  0  0
   -8.4260   -2.3770  -24.5980 H   0  0  0  0  0  0  0  0  0  0  0  0
   -5.4610   -1.6810  -24.7380 H   0  0  0  0  0  0  0  0  0  0  0  0
   -6.4040   -2.5670  -25.9280 H   0  0  0  0  0  0  0  0  0  0  0  0
   -7.7420   -0.5640  -26.4250 H   0  0  0  0  0  0  0  0  0  0  0  0
   -4.7810    0.1240  -26.3780 H   0  0  0  0  0  0  0  0  0  0  0  0
   -6.0050    2.1710  -26.9160 H   0  0  0  0  0  0  0  0  0  0  0  0
   -5.3680    1.5170  -28.4260 H   0  0  0  0  0  0  0  0  0  0  0  0
   -7.0710    1.3030  -28.0330 H   0  0  0  0  0  0  0  0  0  0  0  0
  1  2  1  0  0  0  0
  1 44  1  0  0  0  0
  1 45  1  0  0  0  0
  1 46  1  0  0  0  0
  2  3  1  0  0  0  0
  2  7  1  0  0  0  0
  2 43  1  0  0  0  0
  3  4  1  0  0  0  0
  3  5  1  0  0  0  0
  3  6  1  0  0  0  0
  7  8  1  0  0  0  0
  7 33  1  0  0  0  0
  7 42  1  0  0  0  0
  8  9  1  0  0  0  0
  8 40  1  0  0  0  0
  8 41  1  0  0  0  0
  9 10  1  0  0  0  0
  9 38  1  0  0  0  0
  9 39  1  0  0  0  0
 10 11  1  0  0  0  0
 10 32  1  0  0  0  0
 11 12  2  0  0  0  0
 11 13  1  0  0  0  0
 13 14  1  0  0  0  0
 13 30  1  0  0  0  0
 13 31  1  0  0  0  0
 14 15  2  0  0  0  0
 14 23  1  0  0  0  0
 15 16  1  0  0  0  0
 15 29  1  0  0  0  0
 16 17  2  0  0  0  0
 17 18  1  0  0  0  0
 17 28  1  0  0  0  0
 18 19  2  0  0  0  0
 18 23  1  0  0  0  0
 19 20  1  0  0  0  0
 19 27  1  0  0  0  0
 20 21  2  0  0  0  0
 20 26  1  0  0  0  0
 21 22  1  0  0  0  0
 21 25  1  0  0  0  0
 22 23  2  0  0  0  0
 22 24  1  0  0  0  0
 32 33  1  0  0  0  0
 32 36  1  0  0  0  0
 32 37  1  0  0  0  0
 33 34  1  0  0  0  0
 33 35  1  0  0  0  0
M  END
>  <MODEL>
      11

$$$$
best_conformers_48.pdb
 OpenBabel01292518153D

 46 48  0  0  0  0  0  0  0  0999 V2000
   -6.0630    1.3200  -27.6010 C   0  0  0  0  0  0  0  0  0  0  0  0
   -5.7280   -0.0120  -26.9180 C   0  0  0  0  0  0  0  0  0  0  0  0
   -5.5000   -1.0920  -27.9830 C   0  0  0  0  0  0  0  0  0  0  0  0
   -6.4430   -1.3870  -28.4580 H   0  0  0  0  0  0  0  0  0  0  0  0
   -4.8460   -0.7190  -28.7790 H   0  0  0  0  0  0  0  0  0  0  0  0
   -5.0340   -1.9940  -27.5750 H   0  0  0  0  0  0  0  0  0  0  0  0
   -6.7940   -0.4260  -25.8800 C   0  0  0  0  0  0  0  0  0  0  0  0
   -7.0310    0.6480  -24.8130 C   0  0  0  0  0  0  0  0  0  0  0  0
   -8.0340    0.2130  -23.7440 C   0  0  0  0  0  0  0  0  0  0  0  0
   -7.6250   -1.0530  -23.1530 N   0  0  0  0  0  0  0  0  0  0  0  0
   -7.8560   -1.2620  -21.7900 C   0  0  0  0  0  0  0  0  0  0  0  0
   -8.7790   -0.7490  -21.1960 O   0  0  0  0  0  0  0  0  0  0  0  0
   -6.8010   -2.0910  -21.0340 C   0  0  0  0  0  0  0  0  0  0  0  0
   -6.1300   -1.2170  -19.9940 C   0  0  0  0  0  0  0  0  0  0  0  0
   -6.5110   -1.2760  -18.6800 C   0  0  0  0  0  0  0  0  0  0  0  0
   -6.0170   -0.5060  -17.6720 N   0  0  0  0  0  0  0  0  0  0  0  0
   -5.0950    0.3690  -17.9990 C   0  0  0  0  0  0  0  0  0  0  0  0
   -4.6060    0.5540  -19.3210 C   0  0  0  0  0  0  0  0  0  0  0  0
   -3.6180    1.5230  -19.6300 C   0  0  0  0  0  0  0  0  0  0  0  0
   -3.1750    1.6890  -20.9150 C   0  0  0  0  0  0  0  0  0  0  0  0
   -3.7070    0.8870  -21.9510 C   0  0  0  0  0  0  0  0  0  0  0  0
   -4.6630   -0.0610  -21.6780 C   0  0  0  0  0  0  0  0  0  0  0  0
   -5.1400   -0.2550  -20.3540 C   0  0  0  0  0  0  0  0  0  0  0  0
   -5.0540   -0.6680  -22.4870 H   0  0  0  0  0  0  0  0  0  0  0  0
   -3.3530    1.0260  -22.9690 H   0  0  0  0  0  0  0  0  0  0  0  0
   -2.4230    2.4390  -21.1490 H   0  0  0  0  0  0  0  0  0  0  0  0
   -3.2230    2.1410  -18.8260 H   0  0  0  0  0  0  0  0  0  0  0  0
   -4.6890    0.9890  -17.1970 H   0  0  0  0  0  0  0  0  0  0  0  0
   -7.2710   -1.9890  -18.3640 H   0  0  0  0  0  0  0  0  0  0  0  0
   -7.3210   -2.9100  -20.5240 H   0  0  0  0  0  0  0  0  0  0  0  0
   -6.0610   -2.5250  -21.7190 H   0  0  0  0  0  0  0  0  0  0  0  0
   -7.4620   -2.1320  -24.1170 C   0  0  0  0  0  0  0  0  0  0  0  0
   -6.4540   -1.7550  -25.1960 C   0  0  0  0  0  0  0  0  0  0  0  0
   -6.4040   -2.5670  -25.9280 H   0  0  0  0  0  0  0  0  0  0  0  0
   -5.4610   -1.6810  -24.7380 H   0  0  0  0  0  0  0  0  0  0  0  0
   -8.4260   -2.3770  -24.5980 H   0  0  0  0  0  0  0  0  0  0  0  0
   -7.1510   -3.0300  -23.5850 H   0  0  0  0  0  0  0  0  0  0  0  0
   -9.0460    0.1570  -24.1740 H   0  0  0  0  0  0  0  0  0  0  0  0
   -8.0810    0.9470  -22.9390 H   0  0  0  0  0  0  0  0  0  0  0  0
   -6.0770    0.8890  -24.3250 H   0  0  0  0  0  0  0  0  0  0  0  0
   -7.3840    1.5760  -25.2690 H   0  0  0  0  0  0  0  0  0  0  0  0
   -7.7420   -0.5640  -26.4250 H   0  0  0  0  0  0  0  0  0  0  0  0
   -4.7800    0.1240  -26.3780 H   0  0  0  0  0  0  0  0  0  0  0  0
   -7.0710    1.3030  -28.0330 H   0  0  0  0  0  0  0  0  0  0  0  0
   -6.0050    2.1710  -26.9160 H   0  0  0  0  0  0  0  0  0  0  0  0
   -5.3680    1.5170  -28.4260 H   0  0  0  0  0  0  0  0  0  0  0  0
  1  2  1  0  0  0  0
  1 44  1  0  0  0  0
  1 45  1  0  0  0  0
  1 46  1  0  0  0  0
  2  3  1  0  0  0  0
  2  7  1  0  0  0  0
  2 43  1  0  0  0  0
  3  4  1  0  0  0  0
  3  5  1  0  0  0  0
  3  6  1  0  0  0  0
  7  8  1  0  0  0  0
  7 33  1  0  0  0  0
  7 42  1  0  0  0  0
  8  9  1  0  0  0  0
  8 40  1  0  0  0  0
  8 41  1  0  0  0  0
  9 10  1  0  0  0  0
  9 38  1  0  0  0  0
  9 39  1  0  0  0  0
 10 11  1  0  0  0  0
 10 32  1  0  0  0  0
 11 12  2  0  0  0  0
 11 13  1  0  0  0  0
 13 14  1  0  0  0  0
 13 30  1  0  0  0  0
 13 31  1  0  0  0  0
 14 15  2  0  0  0  0
 14 23  1  0  0  0  0
 15 16  1  0  0  0  0
 15 29  1  0  0  0  0
 16 17  2  0  0  0  0
 17 18  1  0  0  0  0
 17 28  1  0  0  0  0
 18 19  2  0  0  0  0
 18 23  1  0  0  0  0
 19 20  1  0  0  0  0
 19 27  1  0  0  0  0
 20 21  2  0  0  0  0
 20 26  1  0  0  0  0
 21 22  1  0  0  0  0
 21 25  1  0  0  0  0
 22 23  2  0  0  0  0
 22 24  1  0  0  0  0
 32 33  1  0  0  0  0
 32 36  1  0  0  0  0
 32 37  1  0  0  0  0
 33 34  1  0  0  0  0
 33 35  1  0  0  0  0
M  END
>  <MODEL>
      12

$$$$
best_conformers_48.pdb
 OpenBabel01292518153D

 46 48  0  0  0  0  0  0  0  0999 V2000
   -5.7320   -1.7440  -27.4870 C   0  0  0  0  0  0  0  0  0  0  0  0
   -6.3990   -0.6790  -26.6080 C   0  0  0  0  0  0  0  0  0  0  0  0
   -6.4130    0.6640  -27.3460 C   0  0  0  0  0  0  0  0  0  0  0  0
   -5.4310    0.8720  -27.7830 H   0  0  0  0  0  0  0  0  0  0  0  0
   -6.6600    1.5010  -26.6860 H   0  0  0  0  0  0  0  0  0  0  0  0
   -7.1360    0.6600  -28.1680 H   0  0  0  0  0  0  0  0  0  0  0  0
   -7.8130   -1.1070  -26.1530 C   0  0  0  0  0  0  0  0  0  0  0  0
   -8.5290   -0.0830  -25.2650 C   0  0  0  0  0  0  0  0  0  0  0  0
   -7.8810    0.0430  -23.8940 C   0  0  0  0  0  0  0  0  0  0  0  0
   -7.7480   -1.2550  -23.2330 N   0  0  0  0  0  0  0  0  0  0  0  0
   -7.8360   -1.2810  -21.8460 C   0  0  0  0  0  0  0  0  0  0  0  0
   -8.6920   -0.6590  -21.2470 O   0  0  0  0  0  0  0  0  0  0  0  0
   -6.7910   -2.0890  -21.0430 C   0  0  0  0  0  0  0  0  0  0  0  0
   -6.1310   -1.2150  -19.9960 C   0  0  0  0  0  0  0  0  0  0  0  0
   -6.5110   -1.2760  -18.6810 C   0  0  0  0  0  0  0  0  0  0  0  0
   -6.0170   -0.5060  -17.6710 N   0  0  0  0  0  0  0  0  0  0  0  0
   -5.0950    0.3690  -17.9980 C   0  0  0  0  0  0  0  0  0  0  0  0
   -4.6050    0.5540  -19.3210 C   0  0  0  0  0  0  0  0  0  0  0  0
   -3.6150    1.5230  -19.6280 C   0  0  0  0  0  0  0  0  0  0  0  0
   -3.1720    1.6860  -20.9130 C   0  0  0  0  0  0  0  0  0  0  0  0
   -3.7040    0.8850  -21.9490 C   0  0  0  0  0  0  0  0  0  0  0  0
   -4.6630   -0.0610  -21.6800 C   0  0  0  0  0  0  0  0  0  0  0  0
   -5.1380   -0.2550  -20.3550 C   0  0  0  0  0  0  0  0  0  0  0  0
   -5.0610   -0.6640  -22.4930 H   0  0  0  0  0  0  0  0  0  0  0  0
   -3.3510    1.0250  -22.9670 H   0  0  0  0  0  0  0  0  0  0  0  0
   -2.4180    2.4350  -21.1480 H   0  0  0  0  0  0  0  0  0  0  0  0
   -3.2200    2.1400  -18.8240 H   0  0  0  0  0  0  0  0  0  0  0  0
   -4.6890    0.9900  -17.1970 H   0  0  0  0  0  0  0  0  0  0  0  0
   -7.2710   -1.9890  -18.3650 H   0  0  0  0  0  0  0  0  0  0  0  0
   -6.0360   -2.5570  -21.6880 H   0  0  0  0  0  0  0  0  0  0  0  0
   -7.3330   -2.8930  -20.5300 H   0  0  0  0  0  0  0  0  0  0  0  0
   -7.1810   -2.3400  -24.0180 C   0  0  0  0  0  0  0  0  0  0  0  0
   -7.8510   -2.4340  -25.3910 C   0  0  0  0  0  0  0  0  0  0  0  0
   -7.3920   -3.2370  -25.9720 H   0  0  0  0  0  0  0  0  0  0  0  0
   -8.8960   -2.7300  -25.2500 H   0  0  0  0  0  0  0  0  0  0  0  0
   -7.3520   -3.2690  -23.4740 H   0  0  0  0  0  0  0  0  0  0  0  0
   -6.0900   -2.2420  -24.1430 H   0  0  0  0  0  0  0  0  0  0  0  0
   -8.4820    0.6700  -23.2360 H   0  0  0  0  0  0  0  0  0  0  0  0
   -6.8980    0.5370  -23.9870 H   0  0  0  0  0  0  0  0  0  0  0  0
   -9.5690   -0.3980  -25.1290 H   0  0  0  0  0  0  0  0  0  0  0  0
   -8.5740    0.8960  -25.7520 H   0  0  0  0  0  0  0  0  0  0  0  0
   -8.4020   -1.2250  -27.0760 H   0  0  0  0  0  0  0  0  0  0  0  0
   -5.7640   -0.5530  -25.7230 H   0  0  0  0  0  0  0  0  0  0  0  0
   -5.4870   -2.6530  -26.9290 H   0  0  0  0  0  0  0  0  0  0  0  0
   -4.7990   -1.3610  -27.9130 H   0  0  0  0  0  0  0  0  0  0  0  0
   -6.3750   -2.0280  -28.3270 H   0  0  0  0  0  0  0  0  0  0  0  0
  1  2  1  0  0  0  0
  1 44  1  0  0  0  0
  1 45  1  0  0  0  0
  1 46  1  0  0  0  0
  2  3  1  0  0  0  0
  2  7  1  0  0  0  0
  2 43  1  0  0  0  0
  3  4  1  0  0  0  0
  3  5  1  0  0  0  0
  3  6  1  0  0  0  0
  7  8  1  0  0  0  0
  7 33  1  0  0  0  0
  7 42  1  0  0  0  0
  8  9  1  0  0  0  0
  8 40  1  0  0  0  0
  8 41  1  0  0  0  0
  9 10  1  0  0  0  0
  9 38  1  0  0  0  0
  9 39  1  0  0  0  0
 10 11  1  0  0  0  0
 10 32  1  0  0  0  0
 11 12  2  0  0  0  0
 11 13  1  0  0  0  0
 13 14  1  0  0  0  0
 13 30  1  0  0  0  0
 13 31  1  0  0  0  0
 14 15  2  0  0  0  0
 14 23  1  0  0  0  0
 15 16  1  0  0  0  0
 15 29  1  0  0  0  0
 16 17  2  0  0  0  0
 17 18  1  0  0  0  0
 17 28  1  0  0  0  0
 18 19  2  0  0  0  0
 18 23  1  0  0  0  0
 19 20  1  0  0  0  0
 19 27  1  0  0  0  0
 20 21  2  0  0  0  0
 20 26  1  0  0  0  0
 21 22  1  0  0  0  0
 21 25  1  0  0  0  0
 22 23  2  0  0  0  0
 22 24  1  0  0  0  0
 32 33  1  0  0  0  0
 32 36  1  0  0  0  0
 32 37  1  0  0  0  0
 33 34  1  0  0  0  0
 33 35  1  0  0  0  0
M  END
>  <MODEL>
      13

$$$$
best_conformers_48.pdb
 OpenBabel01292518153D

 46 48  0  0  0  0  0  0  0  0999 V2000
   -6.4130    0.6640  -27.3460 C   0  0  0  0  0  0  0  0  0  0  0  0
   -6.3990   -0.6790  -26.6080 C   0  0  0  0  0  0  0  0  0  0  0  0
   -5.7320   -1.7440  -27.4870 C   0  0  0  0  0  0  0  0  0  0  0  0
   -6.3750   -2.0280  -28.3270 H   0  0  0  0  0  0  0  0  0  0  0  0
   -5.4870   -2.6530  -26.9290 H   0  0  0  0  0  0  0  0  0  0  0  0
   -4.7990   -1.3610  -27.9130 H   0  0  0  0  0  0  0  0  0  0  0  0
   -7.8130   -1.1070  -26.1530 C   0  0  0  0  0  0  0  0  0  0  0  0
   -7.8510   -2.4340  -25.3910 C   0  0  0  0  0  0  0  0  0  0  0  0
   -7.1810   -2.3400  -24.0180 C   0  0  0  0  0  0  0  0  0  0  0  0
   -7.7480   -1.2550  -23.2330 N   0  0  0  0  0  0  0  0  0  0  0  0
   -7.8360   -1.2810  -21.8460 C   0  0  0  0  0  0  0  0  0  0  0  0
   -8.6920   -0.6590  -21.2470 O   0  0  0  0  0  0  0  0  0  0  0  0
   -6.7910   -2.0890  -21.0430 C   0  0  0  0  0  0  0  0  0  0  0  0
   -6.1310   -1.2150  -19.9960 C   0  0  0  0  0  0  0  0  0  0  0  0
   -6.5110   -1.2760  -18.6810 C   0  0  0  0  0  0  0  0  0  0  0  0
   -6.0170   -0.5060  -17.6710 N   0  0  0  0  0  0  0  0  0  0  0  0
   -5.0950    0.3690  -17.9980 C   0  0  0  0  0  0  0  0  0  0  0  0
   -4.6050    0.5540  -19.3210 C   0  0  0  0  0  0  0  0  0  0  0  0
   -3.6150    1.5230  -19.6280 C   0  0  0  0  0  0  0  0  0  0  0  0
   -3.1720    1.6860  -20.9130 C   0  0  0  0  0  0  0  0  0  0  0  0
   -3.7040    0.8850  -21.9490 C   0  0  0  0  0  0  0  0  0  0  0  0
   -4.6630   -0.0610  -21.6800 C   0  0  0  0  0  0  0  0  0  0  0  0
   -5.1380   -0.2550  -20.3550 C   0  0  0  0  0  0  0  0  0  0  0  0
   -5.0610   -0.6640  -22.4930 H   0  0  0  0  0  0  0  0  0  0  0  0
   -3.3510    1.0250  -22.9670 H   0  0  0  0  0  0  0  0  0  0  0  0
   -2.4180    2.4350  -21.1480 H   0  0  0  0  0  0  0  0  0  0  0  0
   -3.2200    2.1400  -18.8240 H   0  0  0  0  0  0  0  0  0  0  0  0
   -4.6890    0.9900  -17.1970 H   0  0  0  0  0  0  0  0  0  0  0  0
   -7.2710   -1.9890  -18.3650 H   0  0  0  0  0  0  0  0  0  0  0  0
   -6.0360   -2.5570  -21.6880 H   0  0  0  0  0  0  0  0  0  0  0  0
   -7.3330   -2.8930  -20.5300 H   0  0  0  0  0  0  0  0  0  0  0  0
   -7.8810    0.0430  -23.8940 C   0  0  0  0  0  0  0  0  0  0  0  0
   -8.5290   -0.0830  -25.2650 C   0  0  0  0  0  0  0  0  0  0  0  0
   -9.5690   -0.3980  -25.1280 H   0  0  0  0  0  0  0  0  0  0  0  0
   -8.5740    0.8960  -25.7520 H   0  0  0  0  0  0  0  0  0  0  0  0
   -6.8980    0.5370  -23.9870 H   0  0  0  0  0  0  0  0  0  0  0  0
   -8.4820    0.6700  -23.2360 H   0  0  0  0  0  0  0  0  0  0  0  0
   -6.0900   -2.2420  -24.1430 H   0  0  0  0  0  0  0  0  0  0  0  0
   -7.3520   -3.2690  -23.4740 H   0  0  0  0  0  0  0  0  0  0  0  0
   -7.3920   -3.2370  -25.9720 H   0  0  0  0  0  0  0  0  0  0  0  0
   -8.8960   -2.7300  -25.2500 H   0  0  0  0  0  0  0  0  0  0  0  0
   -8.4020   -1.2240  -27.0760 H   0  0  0  0  0  0  0  0  0  0  0  0
   -5.7640   -0.5520  -25.7230 H   0  0  0  0  0  0  0  0  0  0  0  0
   -7.1360    0.6600  -28.1680 H   0  0  0  0  0  0  0  0  0  0  0  0
   -5.4310    0.8720  -27.7830 H   0  0  0  0  0  0  0  0  0  0  0  0
   -6.6600    1.5010  -26.6860 H   0  0  0  0  0  0  0  0  0  0  0  0
  1  2  1  0  0  0  0
  1 44  1  0  0  0  0
  1 45  1  0  0  0  0
  1 46  1  0  0  0  0
  2  3  1  0  0  0  0
  2  7  1  0  0  0  0
  2 43  1  0  0  0  0
  3  4  1  0  0  0  0
  3  5  1  0  0  0  0
  3  6  1  0  0  0  0
  7  8  1  0  0  0  0
  7 33  1  0  0  0  0
  7 42  1  0  0  0  0
  8  9  1  0  0  0  0
  8 40  1  0  0  0  0
  8 41  1  0  0  0  0
  9 10  1  0  0  0  0
  9 38  1  0  0  0  0
  9 39  1  0  0  0  0
 10 11  1  0  0  0  0
 10 32  1  0  0  0  0
 11 12  2  0  0  0  0
 11 13  1  0  0  0  0
 13 14  1  0  0  0  0
 13 30  1  0  0  0  0
 13 31  1  0  0  0  0
 14 15  2  0  0  0  0
 14 23  1  0  0  0  0
 15 16  1  0  0  0  0
 15 29  1  0  0  0  0
 16 17  2  0  0  0  0
 17 18  1  0  0  0  0
 17 28  1  0  0  0  0
 18 19  2  0  0  0  0
 18 23  1  0  0  0  0
 19 20  1  0  0  0  0
 19 27  1  0  0  0  0
 20 21  2  0  0  0  0
 20 26  1  0  0  0  0
 21 22  1  0  0  0  0
 21 25  1  0  0  0  0
 22 23  2  0  0  0  0
 22 24  1  0  0  0  0
 32 33  1  0  0  0  0
 32 36  1  0  0  0  0
 32 37  1  0  0  0  0
 33 34  1  0  0  0  0
 33 35  1  0  0  0  0
M  END
>  <MODEL>
      14

$$$$
