best_conformers_84.pdb
 OpenBabel01292518153D

 63 68  0  0  1  0  0  0  0  0999 V2000
   -6.8010   -4.5630  -23.2690 C   0  0  0  0  0  0  0  0  0  0  0  0
   -7.5700   -3.6990  -22.2610 C   0  0  1  0  0  0  0  0  0  0  0  0
   -6.6140   -3.1560  -21.1730 C   0  0  0  0  0  0  0  0  0  0  0  0
   -6.9020   -1.7460  -21.0920 N   0  0  0  0  0  0  0  0  0  0  0  0
   -6.3320   -0.9130  -20.0960 C   0  0  0  0  0  0  0  0  0  0  0  0
   -6.7080   -1.0650  -18.7830 C   0  0  0  0  0  0  0  0  0  0  0  0
   -6.2070   -0.3500  -17.7530 N   0  0  0  0  0  0  0  0  0  0  0  0
   -5.2770    0.5350  -18.0510 C   0  0  0  0  0  0  0  0  0  0  0  0
   -4.7710    0.7690  -19.3620 C   0  0  0  0  0  0  0  0  0  0  0  0
   -3.7230    1.6920  -19.6200 C   0  0  0  0  0  0  0  0  0  0  0  0
   -3.2090    1.8400  -20.8810 C   0  0  0  0  0  0  0  0  0  0  0  0
   -3.7440    1.0910  -21.9510 C   0  0  0  0  0  0  0  0  0  0  0  0
   -4.7190    0.1490  -21.7230 C   0  0  0  0  0  0  0  0  0  0  0  0
   -5.3010    0.0110  -20.4320 C   0  0  0  0  0  0  0  0  0  0  0  0
   -5.0600   -0.4940  -22.5290 H   0  0  0  0  0  0  0  0  0  0  0  0
   -3.3600    1.2440  -22.9580 H   0  0  0  0  0  0  0  0  0  0  0  0
   -2.3600    2.5030  -21.0420 H   0  0  0  0  0  0  0  0  0  0  0  0
   -3.3240    2.2640  -18.7870 H   0  0  0  0  0  0  0  0  0  0  0  0
   -4.8620    1.1060  -17.2230 H   0  0  0  0  0  0  0  0  0  0  0  0
   -7.4640   -1.8040  -18.5230 H   0  0  0  0  0  0  0  0  0  0  0  0
   -7.8950   -1.3170  -21.9130 C   0  0  0  0  0  0  0  0  0  0  0  0
   -8.3660   -0.1950  -21.8750 O   0  0  0  0  0  0  0  0  0  0  0  0
   -8.3430   -2.4690  -22.8350 C   0  0  1  0  0  0  0  0  0  0  0  0
   -7.9290   -2.1590  -24.3030 C   0  0  0  0  0  0  0  0  0  0  0  0
   -8.6410   -1.0240  -24.8640 N   0  0  0  0  0  0  0  0  0  0  0  0
   -8.0120   -0.1650  -25.8540 C   0  0  0  0  0  0  0  0  0  0  0  0
   -7.7010    1.2460  -25.3210 C   0  0  0  0  0  0  0  0  0  0  0  0
   -8.0820    2.2450  -25.9030 O   0  0  0  0  0  0  0  0  0  0  0  0
   -6.9440    1.2350  -24.1750 N   0  0  0  0  0  0  0  0  0  0  0  0
   -6.4200    2.4520  -23.5440 C   0  0  0  0  0  0  0  0  0  0  0  0
   -6.9630    2.7830  -22.2260 C   0  0  0  0  0  0  0  0  0  0  0  0
   -8.9650    2.2570  -22.4860 F   0  0  0  0  0  0  0  0  0  0  0  0
   -6.6420    2.6760  -21.9120 C   0  0  0  0  0  0  0  0  0  0  0  0
   -7.2110    4.1270  -21.9040 C   0  0  0  0  0  0  0  0  0  0  0  0
   -7.7280    4.1010  -20.9990 H   0  0  0  0  0  0  0  0  0  0  0  0
   -6.3180    4.5650  -21.6490 H   0  0  0  0  0  0  0  0  0  0  0  0
   -8.9850    1.3220  -22.3830 H   0  0  0  0  0  0  0  0  0  0  0  0
   -5.7690    2.5290  -21.3620 H   0  0  0  0  0  0  0  0  0  0  0  0
   -6.7250    3.3320  -24.0890 H   0  0  0  0  0  0  0  0  0  0  0  0
   -5.3590    2.4210  -23.4390 H   0  0  0  0  0  0  0  0  0  0  0  0
   -6.4810    0.3460  -24.0110 H   0  0  0  0  0  0  0  0  0  0  0  0
   -8.6630   -0.0580  -26.7220 H   0  0  0  0  0  0  0  0  0  0  0  0
   -7.0760   -0.6430  -26.1710 H   0  0  0  0  0  0  0  0  0  0  0  0
   -9.9480   -0.7780  -24.5730 C   0  0  0  0  0  0  0  0  0  0  0  0
  -10.5720    0.1510  -25.0750 O   0  0  0  0  0  0  0  0  0  0  0  0
  -10.6100   -1.7000  -23.6040 C   0  0  0  0  0  0  0  0  0  0  0  0
  -12.0010   -1.6420  -23.5440 C   0  0  0  0  0  0  0  0  0  0  0  0
  -12.6840   -2.3690  -22.5990 C   0  0  0  0  0  0  0  0  0  0  0  0
  -11.9450   -3.1380  -21.7110 C   0  0  0  0  0  0  0  0  0  0  0  0
  -12.6470   -3.7530  -20.7430 F   0  0  0  0  0  0  0  0  0  0  0  0
  -10.5650   -3.2520  -21.7750 C   0  0  0  0  0  0  0  0  0  0  0  0
   -9.8680   -2.5380  -22.7620 C   0  0  0  0  0  0  0  0  0  0  0  0
  -10.0590   -3.8660  -21.0370 H   0  0  0  0  0  0  0  0  0  0  0  0
  -13.7630   -2.3530  -22.5130 H   0  0  0  0  0  0  0  0  0  0  0  0
  -12.5200   -1.0030  -24.2490 H   0  0  0  0  0  0  0  0  0  0  0  0
   -6.8590   -1.9380  -24.3300 H   0  0  0  0  0  0  0  0  0  0  0  0
   -8.1080   -3.0500  -24.9170 H   0  0  0  0  0  0  0  0  0  0  0  0
   -6.7630   -3.6310  -20.1990 H   0  0  0  0  0  0  0  0  0  0  0  0
   -5.5610   -3.3170  -21.4300 H   0  0  0  0  0  0  0  0  0  0  0  0
   -8.3040   -4.3540  -21.7930 H   0  0  0  0  0  0  0  0  0  0  0  0
   -7.4610   -4.9930  -24.0290 H   0  0  0  0  0  0  0  0  0  0  0  0
   -6.3120   -5.3980  -22.7550 H   0  0  0  0  0  0  0  0  0  0  0  0
   -6.0160   -3.9890  -23.7760 H   0  0  0  0  0  0  0  0  0  0  0  0
  1  2  1  0  0  0  0
  1 61  1  0  0  0  0
  1 62  1  0  0  0  0
  1 63  1  0  0  0  0
  2  3  1  0  0  0  0
  2 23  1  0  0  0  0
  2 60  1  1  0  0  0
  3  4  1  0  0  0  0
  3 58  1  0  0  0  0
  3 59  1  0  0  0  0
  4  5  1  0  0  0  0
  4 21  1  0  0  0  0
  5  6  2  0  0  0  0
  5 14  1  0  0  0  0
  6  7  1  0  0  0  0
  6 20  1  0  0  0  0
  7  8  2  0  0  0  0
  8  9  1  0  0  0  0
  8 19  1  0  0  0  0
  9 10  2  0  0  0  0
  9 14  1  0  0  0  0
 10 11  1  0  0  0  0
 10 18  1  0  0  0  0
 11 12  2  0  0  0  0
 11 17  1  0  0  0  0
 12 13  1  0  0  0  0
 12 16  1  0  0  0  0
 13 14  2  0  0  0  0
 13 15  1  0  0  0  0
 21 22  2  0  0  0  0
 23 21  1  1  0  0  0
 23 24  1  0  0  0  0
 23 52  1  0  0  0  0
 24 25  1  0  0  0  0
 24 56  1  0  0  0  0
 24 57  1  0  0  0  0
 25 26  1  0  0  0  0
 25 44  1  0  0  0  0
 26 27  1  0  0  0  0
 26 42  1  0  0  0  0
 26 43  1  0  0  0  0
 27 28  2  0  0  0  0
 27 29  1  0  0  0  0
 29 30  1  0  0  0  0
 29 41  1  0  0  0  0
 30 31  1  0  0  0  0
 30 39  1  0  0  0  0
 30 40  1  0  0  0  0
 31 32  1  0  0  0  0
 31 33  1  0  0  0  0
 31 34  1  0  0  0  0
 33 34  1  0  0  0  0
 33 37  1  0  0  0  0
 33 38  1  0  0  0  0
 34 35  1  0  0  0  0
 34 36  1  0  0  0  0
 44 45  2  0  0  0  0
 44 46  1  0  0  0  0
 46 47  2  0  0  0  0
 46 52  1  0  0  0  0
 47 48  1  0  0  0  0
 47 55  1  0  0  0  0
 48 49  2  0  0  0  0
 48 54  1  0  0  0  0
 49 50  1  0  0  0  0
 49 51  1  0  0  0  0
 51 52  2  0  0  0  0
 51 53  1  0  0  0  0
M  END
>  <MODEL>
       1

$$$$
