best_conformers_1.pdb
 OpenBabel01292518153D

 68 73  0  0  1  0  0  0  0  0999 V2000
   -6.4920   -1.8450  -29.4050 C   0  0  0  0  0  0  0  0  0  0  0  0
   -6.9350   -2.7630  -28.3750 N   0  0  0  0  0  0  0  0  0  0  0  0
   -6.2540   -2.8340  -27.2020 C   0  0  0  0  0  0  0  0  0  0  0  0
   -5.2970   -2.1200  -26.9370 O   0  0  0  0  0  0  0  0  0  0  0  0
   -6.7520   -3.9050  -26.2310 C   0  0  0  0  0  0  0  0  0  0  0  0
   -7.6740   -3.3860  -25.2400 N   0  0  0  0  0  0  0  0  0  0  0  0
   -7.1200   -2.5620  -24.1740 C   0  0  0  0  0  0  0  0  0  0  0  0
   -7.8980   -2.7240  -22.8550 C   0  0  2  0  0  0  0  0  0  0  0  0
   -7.5360   -1.5370  -21.9430 C   0  0  0  0  0  0  0  0  0  0  0  0
   -7.8910   -0.3840  -22.0580 O   0  0  0  0  0  0  0  0  0  0  0  0
   -6.7200   -2.0020  -20.9340 N   0  0  0  0  0  0  0  0  0  0  0  0
   -6.1450   -1.1560  -19.9640 C   0  0  0  0  0  0  0  0  0  0  0  0
   -6.5250   -1.2810  -18.6540 C   0  0  0  0  0  0  0  0  0  0  0  0
   -6.0490   -0.5210  -17.6390 N   0  0  0  0  0  0  0  0  0  0  0  0
   -5.1350    0.3720  -17.9520 C   0  0  0  0  0  0  0  0  0  0  0  0
   -4.6210    0.5720  -19.2670 C   0  0  0  0  0  0  0  0  0  0  0  0
   -3.6250    1.5460  -19.5480 C   0  0  0  0  0  0  0  0  0  0  0  0
   -3.1330    1.6880  -20.8170 C   0  0  0  0  0  0  0  0  0  0  0  0
   -3.6080    0.8690  -21.8660 C   0  0  0  0  0  0  0  0  0  0  0  0
   -4.5790   -0.0690  -21.6250 C   0  0  0  0  0  0  0  0  0  0  0  0
   -5.1230   -0.2250  -20.3170 C   0  0  0  0  0  0  0  0  0  0  0  0
   -4.9440   -0.6880  -22.4410 H   0  0  0  0  0  0  0  0  0  0  0  0
   -3.2100    0.9900  -22.8690 H   0  0  0  0  0  0  0  0  0  0  0  0
   -2.3710    2.4330  -21.0270 H   0  0  0  0  0  0  0  0  0  0  0  0
   -3.2680    2.1710  -18.7350 H   0  0  0  0  0  0  0  0  0  0  0  0
   -4.7490    0.9840  -17.1400 H   0  0  0  0  0  0  0  0  0  0  0  0
   -7.2760   -2.0270  -18.3940 H   0  0  0  0  0  0  0  0  0  0  0  0
   -6.3510   -3.3920  -21.0670 C   0  0  0  0  0  0  0  0  0  0  0  0
   -7.4560   -3.9320  -21.9590 C   0  0  2  0  0  0  0  0  0  0  0  0
   -7.0880   -5.2340  -22.6480 C   0  0  0  0  0  0  0  0  0  0  0  0
   -8.2600   -5.7960  -23.2650 N   0  0  0  0  0  0  0  0  0  0  0  0
   -8.1950   -6.5330  -24.4260 C   0  0  0  0  0  0  0  0  0  0  0  0
   -7.0370   -7.1140  -24.9990 C   0  0  0  0  0  0  0  0  0  0  0  0
   -7.3250   -7.7960  -26.1010 N   0  0  0  0  0  0  0  0  0  0  0  0
   -8.6410   -7.6590  -26.2640 N   0  0  0  0  0  0  0  0  0  0  0  0
   -9.2770   -8.2900  -27.3920 C   0  0  0  0  0  0  0  0  0  0  0  0
   -9.5940   -9.3110  -27.1460 H   0  0  0  0  0  0  0  0  0  0  0  0
  -10.1400   -7.6870  -27.6930 H   0  0  0  0  0  0  0  0  0  0  0  0
   -8.5500   -8.3280  -28.2080 H   0  0  0  0  0  0  0  0  0  0  0  0
   -9.2130   -6.9060  -25.2880 C   0  0  0  0  0  0  0  0  0  0  0  0
  -10.2700   -6.6690  -25.3300 H   0  0  0  0  0  0  0  0  0  0  0  0
   -6.0040   -7.0480  -24.6680 H   0  0  0  0  0  0  0  0  0  0  0  0
   -9.1500   -5.3500  -23.0830 H   0  0  0  0  0  0  0  0  0  0  0  0
   -6.3060   -5.0590  -23.3990 H   0  0  0  0  0  0  0  0  0  0  0  0
   -6.6530   -5.9340  -21.9210 H   0  0  0  0  0  0  0  0  0  0  0  0
   -8.3280   -4.1460  -21.3370 H   0  0  0  0  0  0  0  0  0  0  0  0
   -5.3650   -3.5100  -21.5470 H   0  0  0  0  0  0  0  0  0  0  0  0
   -6.3080   -3.8660  -20.0810 H   0  0  0  0  0  0  0  0  0  0  0  0
   -9.3830   -2.7790  -23.1320 C   0  0  0  0  0  0  0  0  0  0  0  0
  -10.2670   -2.7020  -22.0430 C   0  0  0  0  0  0  0  0  0  0  0  0
  -11.6240   -2.8560  -22.2650 C   0  0  0  0  0  0  0  0  0  0  0  0
  -12.7290   -3.0330  -20.9350 Cl  0  0  0  0  0  0  0  0  0  0  0  0
  -12.1540   -2.9400  -23.5480 C   0  0  0  0  0  0  0  0  0  0  0  0
  -11.2820   -2.9890  -24.6260 C   0  0  0  0  0  0  0  0  0  0  0  0
   -9.9050   -2.9780  -24.4160 C   0  0  0  0  0  0  0  0  0  0  0  0
   -9.0010   -3.3050  -25.5690 C   0  0  0  0  0  0  0  0  0  0  0  0
   -9.4180   -3.5120  -26.7110 O   0  0  0  0  0  0  0  0  0  0  0  0
  -11.6200   -3.0820  -25.6520 H   0  0  0  0  0  0  0  0  0  0  0  0
  -13.2340   -2.9900  -23.6380 H   0  0  0  0  0  0  0  0  0  0  0  0
   -9.8970   -2.4910  -21.0410 H   0  0  0  0  0  0  0  0  0  0  0  0
   -7.1460   -1.5000  -24.4630 H   0  0  0  0  0  0  0  0  0  0  0  0
   -6.0640   -2.8340  -24.0300 H   0  0  0  0  0  0  0  0  0  0  0  0
   -5.8670   -4.2930  -25.7150 H   0  0  0  0  0  0  0  0  0  0  0  0
   -7.2400   -4.7230  -26.7620 H   0  0  0  0  0  0  0  0  0  0  0  0
   -7.8550   -3.1820  -28.4340 H   0  0  0  0  0  0  0  0  0  0  0  0
   -7.1020   -1.9820  -30.3000 H   0  0  0  0  0  0  0  0  0  0  0  0
   -6.5600   -0.8030  -29.0750 H   0  0  0  0  0  0  0  0  0  0  0  0
   -5.4460   -2.0460  -29.6560 H   0  0  0  0  0  0  0  0  0  0  0  0
  1  2  1  0  0  0  0
  1 66  1  0  0  0  0
  1 67  1  0  0  0  0
  1 68  1  0  0  0  0
  2  3  1  0  0  0  0
  2 65  1  0  0  0  0
  3  4  2  0  0  0  0
  3  5  1  0  0  0  0
  5  6  1  0  0  0  0
  5 63  1  0  0  0  0
  5 64  1  0  0  0  0
  6  7  1  0  0  0  0
  6 56  1  0  0  0  0
  7  8  1  0  0  0  0
  7 61  1  0  0  0  0
  7 62  1  0  0  0  0
  8  9  1  1  0  0  0
  8 29  1  0  0  0  0
  8 49  1  0  0  0  0
  9 10  2  0  0  0  0
  9 11  1  0  0  0  0
 11 12  1  0  0  0  0
 11 28  1  0  0  0  0
 12 13  2  0  0  0  0
 12 21  1  0  0  0  0
 13 14  1  0  0  0  0
 13 27  1  0  0  0  0
 14 15  2  0  0  0  0
 15 16  1  0  0  0  0
 15 26  1  0  0  0  0
 16 17  2  0  0  0  0
 16 21  1  0  0  0  0
 17 18  1  0  0  0  0
 17 25  1  0  0  0  0
 18 19  2  0  0  0  0
 18 24  1  0  0  0  0
 19 20  1  0  0  0  0
 19 23  1  0  0  0  0
 20 21  2  0  0  0  0
 20 22  1  0  0  0  0
 28 29  1  0  0  0  0
 28 47  1  0  0  0  0
 28 48  1  0  0  0  0
 29 30  1  0  0  0  0
 29 46  1  1  0  0  0
 30 31  1  0  0  0  0
 30 44  1  0  0  0  0
 30 45  1  0  0  0  0
 31 32  1  0  0  0  0
 31 43  1  0  0  0  0
 32 33  1  0  0  0  0
 32 40  2  0  0  0  0
 33 34  2  0  0  0  0
 33 42  1  0  0  0  0
 34 35  1  0  0  0  0
 35 36  1  0  0  0  0
 35 40  1  0  0  0  0
 36 37  1  0  0  0  0
 36 38  1  0  0  0  0
 36 39  1  0  0  0  0
 40 41  1  0  0  0  0
 49 50  2  0  0  0  0
 49 55  1  0  0  0  0
 50 51  1  0  0  0  0
 50 60  1  0  0  0  0
 51 52  1  0  0  0  0
 51 53  2  0  0  0  0
 53 54  1  0  0  0  0
 53 59  1  0  0  0  0
 54 55  2  0  0  0  0
 54 58  1  0  0  0  0
 55 56  1  0  0  0  0
 56 57  2  0  0  0  0
M  END
>  <MODEL>
       1

$$$$
best_conformers_1.pdb
 OpenBabel01292518153D

 68 73  0  0  1  0  0  0  0  0999 V2000
   -8.7550   -1.2860  -29.5710 C   0  0  0  0  0  0  0  0  0  0  0  0
   -8.2160   -2.2260  -28.6190 N   0  0  0  0  0  0  0  0  0  0  0  0
   -7.4970   -1.8040  -27.5540 C   0  0  0  0  0  0  0  0  0  0  0  0
   -7.2550   -0.6260  -27.3390 O   0  0  0  0  0  0  0  0  0  0  0  0
   -7.0710   -2.9130  -26.5950 C   0  0  0  0  0  0  0  0  0  0  0  0
   -7.9050   -2.9220  -25.4070 N   0  0  0  0  0  0  0  0  0  0  0  0
   -7.5710   -2.0570  -24.2810 C   0  0  0  0  0  0  0  0  0  0  0  0
   -8.0080   -2.6750  -22.9260 C   0  0  2  0  0  0  0  0  0  0  0  0
   -7.7480   -1.6110  -21.8500 C   0  0  0  0  0  0  0  0  0  0  0  0
   -8.2480   -0.5070  -21.7780 O   0  0  0  0  0  0  0  0  0  0  0  0
   -6.7830   -2.0680  -20.9770 N   0  0  0  0  0  0  0  0  0  0  0  0
   -6.1810   -1.2100  -20.0200 C   0  0  0  0  0  0  0  0  0  0  0  0
   -6.5560   -1.3130  -18.7070 C   0  0  0  0  0  0  0  0  0  0  0  0
   -6.0550   -0.5590  -17.6990 N   0  0  0  0  0  0  0  0  0  0  0  0
   -5.1340    0.3220  -18.0150 C   0  0  0  0  0  0  0  0  0  0  0  0
   -4.6390    0.5210  -19.3370 C   0  0  0  0  0  0  0  0  0  0  0  0
   -3.6420    1.4930  -19.6200 C   0  0  0  0  0  0  0  0  0  0  0  0
   -3.1710    1.6490  -20.8950 C   0  0  0  0  0  0  0  0  0  0  0  0
   -3.6770    0.8490  -21.9440 C   0  0  0  0  0  0  0  0  0  0  0  0
   -4.6520   -0.0870  -21.6990 C   0  0  0  0  0  0  0  0  0  0  0  0
   -5.1630   -0.2700  -20.3800 C   0  0  0  0  0  0  0  0  0  0  0  0
   -5.0450   -0.6850  -22.5160 H   0  0  0  0  0  0  0  0  0  0  0  0
   -3.2940    0.9840  -22.9510 H   0  0  0  0  0  0  0  0  0  0  0  0
   -2.4070    2.3920  -21.1100 H   0  0  0  0  0  0  0  0  0  0  0  0
   -3.2690    2.1060  -18.8050 H   0  0  0  0  0  0  0  0  0  0  0  0
   -4.7300    0.9340  -17.2090 H   0  0  0  0  0  0  0  0  0  0  0  0
   -7.3190   -2.0390  -18.4310 H   0  0  0  0  0  0  0  0  0  0  0  0
   -6.2260   -3.3630  -21.3000 C   0  0  0  0  0  0  0  0  0  0  0  0
   -7.1560   -3.8940  -22.4020 C   0  0  2  0  0  0  0  0  0  0  0  0
   -6.4300   -4.7680  -23.4290 C   0  0  0  0  0  0  0  0  0  0  0  0
   -5.3680   -4.0730  -24.1510 N   0  0  0  0  0  0  0  0  0  0  0  0
   -4.6700   -4.8350  -25.1030 C   0  0  0  0  0  0  0  0  0  0  0  0
   -3.4980   -4.3940  -25.7600 C   0  0  0  0  0  0  0  0  0  0  0  0
   -3.0900   -5.2710  -26.6660 N   0  0  0  0  0  0  0  0  0  0  0  0
   -3.9740   -6.2700  -26.6160 N   0  0  0  0  0  0  0  0  0  0  0  0
   -3.8300   -7.4070  -27.5030 C   0  0  0  0  0  0  0  0  0  0  0  0
   -4.8170   -7.7680  -27.8060 H   0  0  0  0  0  0  0  0  0  0  0  0
   -3.2830   -8.2290  -27.0250 H   0  0  0  0  0  0  0  0  0  0  0  0
   -3.2800   -7.0820  -28.3900 H   0  0  0  0  0  0  0  0  0  0  0  0
   -4.9440   -6.0600  -25.6790 C   0  0  0  0  0  0  0  0  0  0  0  0
   -5.7400   -6.7820  -25.5180 H   0  0  0  0  0  0  0  0  0  0  0  0
   -2.9520   -3.4610  -25.6290 H   0  0  0  0  0  0  0  0  0  0  0  0
   -4.6830   -3.6490  -23.5300 H   0  0  0  0  0  0  0  0  0  0  0  0
   -6.0350   -5.6610  -22.9190 H   0  0  0  0  0  0  0  0  0  0  0  0
   -7.1620   -5.1040  -24.1670 H   0  0  0  0  0  0  0  0  0  0  0  0
   -7.8830   -4.5530  -21.9120 H   0  0  0  0  0  0  0  0  0  0  0  0
   -6.2210   -4.0080  -20.4130 H   0  0  0  0  0  0  0  0  0  0  0  0
   -5.1780   -3.2740  -21.6220 H   0  0  0  0  0  0  0  0  0  0  0  0
   -9.4910   -3.0260  -23.0880 C   0  0  0  0  0  0  0  0  0  0  0  0
  -10.3790   -3.0010  -22.0020 C   0  0  0  0  0  0  0  0  0  0  0  0
  -11.7110   -3.3550  -22.1800 C   0  0  0  0  0  0  0  0  0  0  0  0
  -12.8720   -3.1990  -20.8880 Cl  0  0  0  0  0  0  0  0  0  0  0  0
  -12.1860   -3.8160  -23.4060 C   0  0  0  0  0  0  0  0  0  0  0  0
  -11.3180   -3.8610  -24.4770 C   0  0  0  0  0  0  0  0  0  0  0  0
   -9.9990   -3.4380  -24.3290 C   0  0  0  0  0  0  0  0  0  0  0  0
   -9.1510   -3.4530  -25.5490 C   0  0  0  0  0  0  0  0  0  0  0  0
   -9.5500   -3.9070  -26.6180 O   0  0  0  0  0  0  0  0  0  0  0  0
  -11.6340   -4.2060  -25.4570 H   0  0  0  0  0  0  0  0  0  0  0  0
  -13.2200   -4.1290  -23.5090 H   0  0  0  0  0  0  0  0  0  0  0  0
  -10.0320   -2.6970  -21.0230 H   0  0  0  0  0  0  0  0  0  0  0  0
   -8.0680   -1.0800  -24.3770 H   0  0  0  0  0  0  0  0  0  0  0  0
   -6.4950   -1.8750  -24.2980 H   0  0  0  0  0  0  0  0  0  0  0  0
   -6.0430   -2.7630  -26.2730 H   0  0  0  0  0  0  0  0  0  0  0  0
   -7.1490   -3.8930  -27.0700 H   0  0  0  0  0  0  0  0  0  0  0  0
   -8.4750   -3.1950  -28.6770 H   0  0  0  0  0  0  0  0  0  0  0  0
   -9.1800   -0.4290  -29.0450 H   0  0  0  0  0  0  0  0  0  0  0  0
   -7.9630   -0.9230  -30.2310 H   0  0  0  0  0  0  0  0  0  0  0  0
   -9.5350   -1.7780  -30.1590 H   0  0  0  0  0  0  0  0  0  0  0  0
  1  2  1  0  0  0  0
  1 66  1  0  0  0  0
  1 67  1  0  0  0  0
  1 68  1  0  0  0  0
  2  3  1  0  0  0  0
  2 65  1  0  0  0  0
  3  4  2  0  0  0  0
  3  5  1  0  0  0  0
  5  6  1  0  0  0  0
  5 63  1  0  0  0  0
  5 64  1  0  0  0  0
  6  7  1  0  0  0  0
  6 56  1  0  0  0  0
  7  8  1  0  0  0  0
  7 61  1  0  0  0  0
  7 62  1  0  0  0  0
  8  9  1  1  0  0  0
  8 29  1  0  0  0  0
  8 49  1  0  0  0  0
  9 10  2  0  0  0  0
  9 11  1  0  0  0  0
 11 12  1  0  0  0  0
 11 28  1  0  0  0  0
 12 13  2  0  0  0  0
 12 21  1  0  0  0  0
 13 14  1  0  0  0  0
 13 27  1  0  0  0  0
 14 15  2  0  0  0  0
 15 16  1  0  0  0  0
 15 26  1  0  0  0  0
 16 17  2  0  0  0  0
 16 21  1  0  0  0  0
 17 18  1  0  0  0  0
 17 25  1  0  0  0  0
 18 19  2  0  0  0  0
 18 24  1  0  0  0  0
 19 20  1  0  0  0  0
 19 23  1  0  0  0  0
 20 21  2  0  0  0  0
 20 22  1  0  0  0  0
 28 29  1  0  0  0  0
 28 47  1  0  0  0  0
 28 48  1  0  0  0  0
 29 30  1  0  0  0  0
 29 46  1  1  0  0  0
 30 31  1  0  0  0  0
 30 44  1  0  0  0  0
 30 45  1  0  0  0  0
 31 32  1  0  0  0  0
 31 43  1  0  0  0  0
 32 33  1  0  0  0  0
 32 40  2  0  0  0  0
 33 34  2  0  0  0  0
 33 42  1  0  0  0  0
 34 35  1  0  0  0  0
 35 36  1  0  0  0  0
 35 40  1  0  0  0  0
 36 37  1  0  0  0  0
 36 38  1  0  0  0  0
 36 39  1  0  0  0  0
 40 41  1  0  0  0  0
 49 50  2  0  0  0  0
 49 55  1  0  0  0  0
 50 51  1  0  0  0  0
 50 60  1  0  0  0  0
 51 52  1  0  0  0  0
 51 53  2  0  0  0  0
 53 54  1  0  0  0  0
 53 59  1  0  0  0  0
 54 55  2  0  0  0  0
 54 58  1  0  0  0  0
 55 56  1  0  0  0  0
 56 57  2  0  0  0  0
M  END
>  <MODEL>
       2

$$$$
