best_conformers_56.pdb
 OpenBabel01292518153D

 57 62  0  0  1  0  0  0  0  0999 V2000
   -6.9690   -5.1920  -22.8820 C   0  0  0  0  0  0  0  0  0  0  0  0
   -7.4790   -3.9810  -22.1050 C   0  0  1  0  0  0  0  0  0  0  0  0
   -6.4680   -3.4550  -21.0710 C   0  0  0  0  0  0  0  0  0  0  0  0
   -6.7780   -2.0420  -20.9670 N   0  0  0  0  0  0  0  0  0  0  0  0
   -6.1750   -1.1890  -20.0090 C   0  0  0  0  0  0  0  0  0  0  0  0
   -6.5320   -1.2940  -18.6910 C   0  0  0  0  0  0  0  0  0  0  0  0
   -6.0240   -0.5340  -17.6900 N   0  0  0  0  0  0  0  0  0  0  0  0
   -5.1090    0.3490  -18.0180 C   0  0  0  0  0  0  0  0  0  0  0  0
   -4.6170    0.5400  -19.3410 C   0  0  0  0  0  0  0  0  0  0  0  0
   -3.6120    1.5010  -19.6370 C   0  0  0  0  0  0  0  0  0  0  0  0
   -3.1410    1.6470  -20.9110 C   0  0  0  0  0  0  0  0  0  0  0  0
   -3.6460    0.8300  -21.9500 C   0  0  0  0  0  0  0  0  0  0  0  0
   -4.6170   -0.1010  -21.6900 C   0  0  0  0  0  0  0  0  0  0  0  0
   -5.1500   -0.2580  -20.3790 C   0  0  0  0  0  0  0  0  0  0  0  0
   -4.9980   -0.7170  -22.4990 H   0  0  0  0  0  0  0  0  0  0  0  0
   -3.2750    0.9570  -22.9630 H   0  0  0  0  0  0  0  0  0  0  0  0
   -2.3850    2.3950  -21.1360 H   0  0  0  0  0  0  0  0  0  0  0  0
   -3.2390    2.1210  -18.8250 H   0  0  0  0  0  0  0  0  0  0  0  0
   -4.7120    0.9650  -17.2110 H   0  0  0  0  0  0  0  0  0  0  0  0
   -7.2830   -2.0240  -18.3890 H   0  0  0  0  0  0  0  0  0  0  0  0
   -7.5340   -1.5540  -22.0080 C   0  0  0  0  0  0  0  0  0  0  0  0
   -7.8530   -0.3900  -22.1310 O   0  0  0  0  0  0  0  0  0  0  0  0
   -7.8910   -2.7200  -22.9490 C   0  0  1  0  0  0  0  0  0  0  0  0
   -7.1120   -2.5170  -24.2600 C   0  0  0  0  0  0  0  0  0  0  0  0
   -7.5670   -3.3760  -25.3490 N   0  0  0  0  0  0  0  0  0  0  0  0
   -6.5830   -3.7960  -26.3470 C   0  0  0  0  0  0  0  0  0  0  0  0
   -6.1720   -5.2400  -26.2240 C   0  0  0  0  0  0  0  0  0  0  0  0
   -4.9340   -5.4920  -25.7990 N   0  0  0  0  0  0  0  0  0  0  0  0
   -4.6070   -6.7850  -25.6850 C   0  0  0  0  0  0  0  0  0  0  0  0
   -5.4930   -7.8070  -25.9850 C   0  0  0  0  0  0  0  0  0  0  0  0
   -6.7510   -7.4180  -26.4340 C   0  0  0  0  0  0  0  0  0  0  0  0
   -7.0950   -6.1430  -26.5680 N   0  0  0  0  0  0  0  0  0  0  0  0
   -7.5340   -8.1300  -26.6830 H   0  0  0  0  0  0  0  0  0  0  0  0
   -5.2260   -8.8520  -25.8640 H   0  0  0  0  0  0  0  0  0  0  0  0
   -3.6000   -6.9910  -25.3200 H   0  0  0  0  0  0  0  0  0  0  0  0
   -7.0380   -3.6630  -27.3340 H   0  0  0  0  0  0  0  0  0  0  0  0
   -5.6770   -3.1920  -26.2290 H   0  0  0  0  0  0  0  0  0  0  0  0
   -8.8990   -3.5610  -25.6240 C   0  0  0  0  0  0  0  0  0  0  0  0
   -9.2840   -4.0350  -26.6840 O   0  0  0  0  0  0  0  0  0  0  0  0
   -9.8380   -3.1650  -24.5210 C   0  0  0  0  0  0  0  0  0  0  0  0
  -11.2080   -3.3150  -24.7330 C   0  0  0  0  0  0  0  0  0  0  0  0
  -12.0930   -3.0280  -23.7060 C   0  0  0  0  0  0  0  0  0  0  0  0
  -11.6110   -2.5530  -22.5010 C   0  0  0  0  0  0  0  0  0  0  0  0
  -12.5190   -2.2400  -21.5690 F   0  0  0  0  0  0  0  0  0  0  0  0
  -10.2680   -2.4110  -22.2500 C   0  0  0  0  0  0  0  0  0  0  0  0
   -9.3670   -2.7260  -23.2730 C   0  0  0  0  0  0  0  0  0  0  0  0
   -9.9290   -2.0840  -21.2710 H   0  0  0  0  0  0  0  0  0  0  0  0
  -13.1660   -3.1600  -23.7390 H   0  0  0  0  0  0  0  0  0  0  0  0
  -11.5370   -3.6580  -25.7100 H   0  0  0  0  0  0  0  0  0  0  0  0
   -6.0510   -2.7500  -24.0970 H   0  0  0  0  0  0  0  0  0  0  0  0
   -7.2240   -1.4520  -24.5200 H   0  0  0  0  0  0  0  0  0  0  0  0
   -6.5500   -3.9250  -20.0870 H   0  0  0  0  0  0  0  0  0  0  0  0
   -5.4350   -3.6130  -21.4170 H   0  0  0  0  0  0  0  0  0  0  0  0
   -8.4060   -4.2590  -21.5830 H   0  0  0  0  0  0  0  0  0  0  0  0
   -6.0180   -4.9690  -23.3800 H   0  0  0  0  0  0  0  0  0  0  0  0
   -6.7980   -6.0390  -22.2080 H   0  0  0  0  0  0  0  0  0  0  0  0
   -7.6910   -5.5030  -23.6440 H   0  0  0  0  0  0  0  0  0  0  0  0
  1  2  1  0  0  0  0
  1 55  1  0  0  0  0
  1 56  1  0  0  0  0
  1 57  1  0  0  0  0
  2  3  1  0  0  0  0
  2 23  1  0  0  0  0
  2 54  1  1  0  0  0
  3  4  1  0  0  0  0
  3 52  1  0  0  0  0
  3 53  1  0  0  0  0
  4  5  1  0  0  0  0
  4 21  1  0  0  0  0
  5  6  2  0  0  0  0
  5 14  1  0  0  0  0
  6  7  1  0  0  0  0
  6 20  1  0  0  0  0
  7  8  2  0  0  0  0
  8  9  1  0  0  0  0
  8 19  1  0  0  0  0
  9 10  2  0  0  0  0
  9 14  1  0  0  0  0
 10 11  1  0  0  0  0
 10 18  1  0  0  0  0
 11 12  2  0  0  0  0
 11 17  1  0  0  0  0
 12 13  1  0  0  0  0
 12 16  1  0  0  0  0
 13 14  2  0  0  0  0
 13 15  1  0  0  0  0
 21 22  2  0  0  0  0
 23 21  1  1  0  0  0
 23 24  1  0  0  0  0
 23 46  1  0  0  0  0
 24 25  1  0  0  0  0
 24 50  1  0  0  0  0
 24 51  1  0  0  0  0
 25 26  1  0  0  0  0
 25 38  1  0  0  0  0
 26 27  1  0  0  0  0
 26 36  1  0  0  0  0
 26 37  1  0  0  0  0
 27 28  2  0  0  0  0
 27 32  1  0  0  0  0
 28 29  1  0  0  0  0
 29 30  2  0  0  0  0
 29 35  1  0  0  0  0
 30 31  1  0  0  0  0
 30 34  1  0  0  0  0
 31 32  2  0  0  0  0
 31 33  1  0  0  0  0
 38 39  2  0  0  0  0
 38 40  1  0  0  0  0
 40 41  2  0  0  0  0
 40 46  1  0  0  0  0
 41 42  1  0  0  0  0
 41 49  1  0  0  0  0
 42 43  2  0  0  0  0
 42 48  1  0  0  0  0
 43 44  1  0  0  0  0
 43 45  1  0  0  0  0
 45 46  2  0  0  0  0
 45 47  1  0  0  0  0
M  END
>  <MODEL>
       1

$$$$
best_conformers_56.pdb
 OpenBabel01292518153D

 57 62  0  0  1  0  0  0  0  0999 V2000
   -6.9840   -5.1890  -22.8810 C   0  0  0  0  0  0  0  0  0  0  0  0
   -7.4900   -3.9770  -22.1030 C   0  0  1  0  0  0  0  0  0  0  0  0
   -6.4750   -3.4530  -21.0730 C   0  0  0  0  0  0  0  0  0  0  0  0
   -6.7820   -2.0390  -20.9690 N   0  0  0  0  0  0  0  0  0  0  0  0
   -6.1770   -1.1880  -20.0110 C   0  0  0  0  0  0  0  0  0  0  0  0
   -6.5330   -1.2950  -18.6920 C   0  0  0  0  0  0  0  0  0  0  0  0
   -6.0230   -0.5340  -17.6900 N   0  0  0  0  0  0  0  0  0  0  0  0
   -5.1090    0.3490  -18.0180 C   0  0  0  0  0  0  0  0  0  0  0  0
   -4.6180    0.5390  -19.3410 C   0  0  0  0  0  0  0  0  0  0  0  0
   -3.6120    1.5020  -19.6370 C   0  0  0  0  0  0  0  0  0  0  0  0
   -3.1410    1.6480  -20.9110 C   0  0  0  0  0  0  0  0  0  0  0  0
   -3.6470    0.8310  -21.9510 C   0  0  0  0  0  0  0  0  0  0  0  0
   -4.6170   -0.1000  -21.6910 C   0  0  0  0  0  0  0  0  0  0  0  0
   -5.1500   -0.2570  -20.3780 C   0  0  0  0  0  0  0  0  0  0  0  0
   -4.9990   -0.7160  -22.4980 H   0  0  0  0  0  0  0  0  0  0  0  0
   -3.2760    0.9580  -22.9630 H   0  0  0  0  0  0  0  0  0  0  0  0
   -2.3850    2.3960  -21.1370 H   0  0  0  0  0  0  0  0  0  0  0  0
   -3.2380    2.1210  -18.8260 H   0  0  0  0  0  0  0  0  0  0  0  0
   -4.7120    0.9650  -17.2110 H   0  0  0  0  0  0  0  0  0  0  0  0
   -7.2830   -2.0230  -18.3880 H   0  0  0  0  0  0  0  0  0  0  0  0
   -7.5400   -1.5520  -22.0050 C   0  0  0  0  0  0  0  0  0  0  0  0
   -7.8550   -0.3850  -22.1280 O   0  0  0  0  0  0  0  0  0  0  0  0
   -7.9010   -2.7180  -22.9470 C   0  0  1  0  0  0  0  0  0  0  0  0
   -7.1290   -2.5150  -24.2590 C   0  0  0  0  0  0  0  0  0  0  0  0
   -7.5860   -3.3730  -25.3470 N   0  0  0  0  0  0  0  0  0  0  0  0
   -6.6060   -3.7980  -26.3490 C   0  0  0  0  0  0  0  0  0  0  0  0
   -6.1980   -5.2420  -26.2280 C   0  0  0  0  0  0  0  0  0  0  0  0
   -7.1240   -6.1410  -26.5690 N   0  0  0  0  0  0  0  0  0  0  0  0
   -6.7860   -7.4160  -26.4370 C   0  0  0  0  0  0  0  0  0  0  0  0
   -5.5280   -7.8090  -25.9920 C   0  0  0  0  0  0  0  0  0  0  0  0
   -4.6390   -6.7910  -25.6940 C   0  0  0  0  0  0  0  0  0  0  0  0
   -4.9630   -5.4980  -25.8070 N   0  0  0  0  0  0  0  0  0  0  0  0
   -3.6320   -7.0000  -25.3320 H   0  0  0  0  0  0  0  0  0  0  0  0
   -5.2630   -8.8550  -25.8730 H   0  0  0  0  0  0  0  0  0  0  0  0
   -7.5720   -8.1250  -26.6840 H   0  0  0  0  0  0  0  0  0  0  0  0
   -5.7000   -3.1960  -26.2320 H   0  0  0  0  0  0  0  0  0  0  0  0
   -7.0630   -3.6610  -27.3320 H   0  0  0  0  0  0  0  0  0  0  0  0
   -8.9160   -3.5550  -25.6180 C   0  0  0  0  0  0  0  0  0  0  0  0
   -9.3060   -4.0270  -26.6780 O   0  0  0  0  0  0  0  0  0  0  0  0
   -9.8540   -3.1550  -24.5110 C   0  0  0  0  0  0  0  0  0  0  0  0
  -11.2260   -3.2990  -24.7230 C   0  0  0  0  0  0  0  0  0  0  0  0
  -12.1100   -3.0090  -23.6990 C   0  0  0  0  0  0  0  0  0  0  0  0
  -11.6220   -2.5400  -22.4930 C   0  0  0  0  0  0  0  0  0  0  0  0
  -12.5290   -2.2310  -21.5610 F   0  0  0  0  0  0  0  0  0  0  0  0
  -10.2740   -2.4020  -22.2390 C   0  0  0  0  0  0  0  0  0  0  0  0
   -9.3760   -2.7210  -23.2670 C   0  0  0  0  0  0  0  0  0  0  0  0
   -9.9360   -2.0770  -21.2580 H   0  0  0  0  0  0  0  0  0  0  0  0
  -13.1810   -3.1260  -23.7330 H   0  0  0  0  0  0  0  0  0  0  0  0
  -11.5550   -3.6420  -25.6990 H   0  0  0  0  0  0  0  0  0  0  0  0
   -7.2360   -1.4510  -24.5180 H   0  0  0  0  0  0  0  0  0  0  0  0
   -6.0670   -2.7500  -24.0990 H   0  0  0  0  0  0  0  0  0  0  0  0
   -5.4420   -3.6160  -21.4190 H   0  0  0  0  0  0  0  0  0  0  0  0
   -6.5530   -3.9230  -20.0880 H   0  0  0  0  0  0  0  0  0  0  0  0
   -8.4150   -4.2530  -21.5790 H   0  0  0  0  0  0  0  0  0  0  0  0
   -7.7080   -5.4990  -23.6420 H   0  0  0  0  0  0  0  0  0  0  0  0
   -6.0350   -4.9690  -23.3830 H   0  0  0  0  0  0  0  0  0  0  0  0
   -6.8120   -6.0370  -22.2090 H   0  0  0  0  0  0  0  0  0  0  0  0
  1  2  1  0  0  0  0
  1 55  1  0  0  0  0
  1 56  1  0  0  0  0
  1 57  1  0  0  0  0
  2  3  1  0  0  0  0
  2 23  1  0  0  0  0
  2 54  1  1  0  0  0
  3  4  1  0  0  0  0
  3 52  1  0  0  0  0
  3 53  1  0  0  0  0
  4  5  1  0  0  0  0
  4 21  1  0  0  0  0
  5  6  2  0  0  0  0
  5 14  1  0  0  0  0
  6  7  1  0  0  0  0
  6 20  1  0  0  0  0
  7  8  2  0  0  0  0
  8  9  1  0  0  0  0
  8 19  1  0  0  0  0
  9 10  2  0  0  0  0
  9 14  1  0  0  0  0
 10 11  1  0  0  0  0
 10 18  1  0  0  0  0
 11 12  2  0  0  0  0
 11 17  1  0  0  0  0
 12 13  1  0  0  0  0
 12 16  1  0  0  0  0
 13 14  2  0  0  0  0
 13 15  1  0  0  0  0
 21 22  2  0  0  0  0
 23 21  1  1  0  0  0
 23 24  1  0  0  0  0
 23 46  1  0  0  0  0
 24 25  1  0  0  0  0
 24 50  1  0  0  0  0
 24 51  1  0  0  0  0
 25 26  1  0  0  0  0
 25 38  1  0  0  0  0
 26 27  1  0  0  0  0
 26 36  1  0  0  0  0
 26 37  1  0  0  0  0
 27 28  2  0  0  0  0
 27 32  1  0  0  0  0
 28 29  1  0  0  0  0
 29 30  2  0  0  0  0
 29 35  1  0  0  0  0
 30 31  1  0  0  0  0
 30 34  1  0  0  0  0
 31 32  2  0  0  0  0
 31 33  1  0  0  0  0
 38 39  2  0  0  0  0
 38 40  1  0  0  0  0
 40 41  2  0  0  0  0
 40 46  1  0  0  0  0
 41 42  1  0  0  0  0
 41 49  1  0  0  0  0
 42 43  2  0  0  0  0
 42 48  1  0  0  0  0
 43 44  1  0  0  0  0
 43 45  1  0  0  0  0
 45 46  2  0  0  0  0
 45 47  1  0  0  0  0
M  END
>  <MODEL>
       2

$$$$
best_conformers_56.pdb
 OpenBabel01292518153D

 57 62  0  0  1  0  0  0  0  0999 V2000
   -6.9720   -5.1950  -22.8780 C   0  0  0  0  0  0  0  0  0  0  0  0
   -7.4720   -3.9710  -22.1100 C   0  0  1  0  0  0  0  0  0  0  0  0
   -6.4630   -3.4530  -21.0710 C   0  0  0  0  0  0  0  0  0  0  0  0
   -6.7730   -2.0400  -20.9650 N   0  0  0  0  0  0  0  0  0  0  0  0
   -6.1730   -1.1880  -20.0090 C   0  0  0  0  0  0  0  0  0  0  0  0
   -6.5320   -1.2960  -18.6890 C   0  0  0  0  0  0  0  0  0  0  0  0
   -6.0260   -0.5350  -17.6890 N   0  0  0  0  0  0  0  0  0  0  0  0
   -5.1110    0.3480  -18.0170 C   0  0  0  0  0  0  0  0  0  0  0  0
   -4.6180    0.5390  -19.3410 C   0  0  0  0  0  0  0  0  0  0  0  0
   -3.6140    1.5000  -19.6360 C   0  0  0  0  0  0  0  0  0  0  0  0
   -3.1410    1.6460  -20.9110 C   0  0  0  0  0  0  0  0  0  0  0  0
   -3.6440    0.8310  -21.9500 C   0  0  0  0  0  0  0  0  0  0  0  0
   -4.6160   -0.1020  -21.6910 C   0  0  0  0  0  0  0  0  0  0  0  0
   -5.1490   -0.2580  -20.3790 C   0  0  0  0  0  0  0  0  0  0  0  0
   -4.9970   -0.7160  -22.5000 H   0  0  0  0  0  0  0  0  0  0  0  0
   -3.2730    0.9580  -22.9630 H   0  0  0  0  0  0  0  0  0  0  0  0
   -2.3850    2.3960  -21.1340 H   0  0  0  0  0  0  0  0  0  0  0  0
   -3.2420    2.1200  -18.8240 H   0  0  0  0  0  0  0  0  0  0  0  0
   -4.7130    0.9640  -17.2110 H   0  0  0  0  0  0  0  0  0  0  0  0
   -7.2830   -2.0260  -18.3890 H   0  0  0  0  0  0  0  0  0  0  0  0
   -7.5180   -1.5470  -22.0090 C   0  0  0  0  0  0  0  0  0  0  0  0
   -7.8350   -0.3800  -22.1280 O   0  0  0  0  0  0  0  0  0  0  0  0
   -7.8590   -2.7040  -22.9590 C   0  0  1  0  0  0  0  0  0  0  0  0
   -7.0700   -2.5070  -24.2660 C   0  0  0  0  0  0  0  0  0  0  0  0
   -7.5060   -3.4000  -25.3270 N   0  0  0  0  0  0  0  0  0  0  0  0
   -6.5100   -3.8310  -26.2990 C   0  0  0  0  0  0  0  0  0  0  0  0
   -6.2060   -2.8040  -27.3490 C   0  0  0  0  0  0  0  0  0  0  0  0
   -5.3110   -1.8650  -27.0400 N   0  0  0  0  0  0  0  0  0  0  0  0
   -5.0690   -0.9640  -27.9920 C   0  0  0  0  0  0  0  0  0  0  0  0
   -5.7210   -0.9700  -29.2140 C   0  0  0  0  0  0  0  0  0  0  0  0
   -6.6250   -2.0010  -29.4180 C   0  0  0  0  0  0  0  0  0  0  0  0
   -6.8550   -2.9350  -28.5060 N   0  0  0  0  0  0  0  0  0  0  0  0
   -7.2000   -2.0800  -30.3390 H   0  0  0  0  0  0  0  0  0  0  0  0
   -5.5450   -0.2130  -29.9710 H   0  0  0  0  0  0  0  0  0  0  0  0
   -4.3220   -0.2090  -27.7470 H   0  0  0  0  0  0  0  0  0  0  0  0
   -5.5810   -4.0160  -25.7530 H   0  0  0  0  0  0  0  0  0  0  0  0
   -6.8870   -4.7270  -26.7960 H   0  0  0  0  0  0  0  0  0  0  0  0
   -8.8290   -3.5590  -25.6360 C   0  0  0  0  0  0  0  0  0  0  0  0
   -9.2050   -4.0450  -26.6920 O   0  0  0  0  0  0  0  0  0  0  0  0
   -9.7810   -3.1360  -24.5540 C   0  0  0  0  0  0  0  0  0  0  0  0
  -11.1490   -3.2750  -24.7750 C   0  0  0  0  0  0  0  0  0  0  0  0
  -12.0380   -2.9930  -23.7490 C   0  0  0  0  0  0  0  0  0  0  0  0
  -11.5770   -2.5260  -22.5350 C   0  0  0  0  0  0  0  0  0  0  0  0
  -12.4860   -2.1970  -21.6120 F   0  0  0  0  0  0  0  0  0  0  0  0
  -10.2340   -2.3960  -22.2910 C   0  0  0  0  0  0  0  0  0  0  0  0
   -9.3250   -2.7020  -23.3050 C   0  0  0  0  0  0  0  0  0  0  0  0
   -9.8980   -2.0770  -21.3160 H   0  0  0  0  0  0  0  0  0  0  0  0
  -13.1030   -3.1490  -23.7750 H   0  0  0  0  0  0  0  0  0  0  0  0
  -11.4890   -3.6040  -25.7510 H   0  0  0  0  0  0  0  0  0  0  0  0
   -7.1920   -1.4590  -24.5810 H   0  0  0  0  0  0  0  0  0  0  0  0
   -6.0020   -2.6960  -24.1140 H   0  0  0  0  0  0  0  0  0  0  0  0
   -6.5440   -3.9230  -20.0870 H   0  0  0  0  0  0  0  0  0  0  0  0
   -5.4290   -3.6100  -21.4140 H   0  0  0  0  0  0  0  0  0  0  0  0
   -8.4040   -4.2390  -21.5930 H   0  0  0  0  0  0  0  0  0  0  0  0
   -6.7800   -6.0380  -22.2040 H   0  0  0  0  0  0  0  0  0  0  0  0
   -6.0360   -4.9730  -23.4030 H   0  0  0  0  0  0  0  0  0  0  0  0
   -7.6990   -5.5170  -23.6290 H   0  0  0  0  0  0  0  0  0  0  0  0
  1  2  1  0  0  0  0
  1 55  1  0  0  0  0
  1 56  1  0  0  0  0
  1 57  1  0  0  0  0
  2  3  1  0  0  0  0
  2 23  1  0  0  0  0
  2 54  1  1  0  0  0
  3  4  1  0  0  0  0
  3 52  1  0  0  0  0
  3 53  1  0  0  0  0
  4  5  1  0  0  0  0
  4 21  1  0  0  0  0
  5  6  2  0  0  0  0
  5 14  1  0  0  0  0
  6  7  1  0  0  0  0
  6 20  1  0  0  0  0
  7  8  2  0  0  0  0
  8  9  1  0  0  0  0
  8 19  1  0  0  0  0
  9 10  2  0  0  0  0
  9 14  1  0  0  0  0
 10 11  1  0  0  0  0
 10 18  1  0  0  0  0
 11 12  2  0  0  0  0
 11 17  1  0  0  0  0
 12 13  1  0  0  0  0
 12 16  1  0  0  0  0
 13 14  2  0  0  0  0
 13 15  1  0  0  0  0
 21 22  2  0  0  0  0
 23 21  1  1  0  0  0
 23 24  1  0  0  0  0
 23 46  1  0  0  0  0
 24 25  1  0  0  0  0
 24 50  1  0  0  0  0
 24 51  1  0  0  0  0
 25 26  1  0  0  0  0
 25 38  1  0  0  0  0
 26 27  1  0  0  0  0
 26 36  1  0  0  0  0
 26 37  1  0  0  0  0
 27 28  2  0  0  0  0
 27 32  1  0  0  0  0
 28 29  1  0  0  0  0
 29 30  2  0  0  0  0
 29 35  1  0  0  0  0
 30 31  1  0  0  0  0
 30 34  1  0  0  0  0
 31 32  2  0  0  0  0
 31 33  1  0  0  0  0
 38 39  2  0  0  0  0
 38 40  1  0  0  0  0
 40 41  2  0  0  0  0
 40 46  1  0  0  0  0
 41 42  1  0  0  0  0
 41 49  1  0  0  0  0
 42 43  2  0  0  0  0
 42 48  1  0  0  0  0
 43 44  1  0  0  0  0
 43 45  1  0  0  0  0
 45 46  2  0  0  0  0
 45 47  1  0  0  0  0
M  END
>  <MODEL>
       3

$$$$
best_conformers_56.pdb
 OpenBabel01292518153D

 57 62  0  0  1  0  0  0  0  0999 V2000
   -6.9770   -5.1930  -22.8790 C   0  0  0  0  0  0  0  0  0  0  0  0
   -7.4760   -3.9690  -22.1100 C   0  0  1  0  0  0  0  0  0  0  0  0
   -6.4660   -3.4520  -21.0720 C   0  0  0  0  0  0  0  0  0  0  0  0
   -6.7740   -2.0390  -20.9650 N   0  0  0  0  0  0  0  0  0  0  0  0
   -6.1740   -1.1880  -20.0090 C   0  0  0  0  0  0  0  0  0  0  0  0
   -6.5320   -1.2960  -18.6890 C   0  0  0  0  0  0  0  0  0  0  0  0
   -6.0260   -0.5360  -17.6890 N   0  0  0  0  0  0  0  0  0  0  0  0
   -5.1110    0.3480  -18.0170 C   0  0  0  0  0  0  0  0  0  0  0  0
   -4.6180    0.5390  -19.3410 C   0  0  0  0  0  0  0  0  0  0  0  0
   -3.6140    1.5000  -19.6360 C   0  0  0  0  0  0  0  0  0  0  0  0
   -3.1410    1.6470  -20.9110 C   0  0  0  0  0  0  0  0  0  0  0  0
   -3.6440    0.8310  -21.9500 C   0  0  0  0  0  0  0  0  0  0  0  0
   -4.6160   -0.1020  -21.6910 C   0  0  0  0  0  0  0  0  0  0  0  0
   -5.1490   -0.2580  -20.3790 C   0  0  0  0  0  0  0  0  0  0  0  0
   -4.9970   -0.7160  -22.5000 H   0  0  0  0  0  0  0  0  0  0  0  0
   -3.2730    0.9580  -22.9630 H   0  0  0  0  0  0  0  0  0  0  0  0
   -2.3850    2.3960  -21.1340 H   0  0  0  0  0  0  0  0  0  0  0  0
   -3.2420    2.1200  -18.8240 H   0  0  0  0  0  0  0  0  0  0  0  0
   -4.7130    0.9640  -17.2110 H   0  0  0  0  0  0  0  0  0  0  0  0
   -7.2830   -2.0250  -18.3890 H   0  0  0  0  0  0  0  0  0  0  0  0
   -7.5190   -1.5450  -22.0090 C   0  0  0  0  0  0  0  0  0  0  0  0
   -7.8350   -0.3780  -22.1270 O   0  0  0  0  0  0  0  0  0  0  0  0
   -7.8620   -2.7020  -22.9590 C   0  0  1  0  0  0  0  0  0  0  0  0
   -7.0730   -2.5040  -24.2660 C   0  0  0  0  0  0  0  0  0  0  0  0
   -7.5110   -3.3970  -25.3270 N   0  0  0  0  0  0  0  0  0  0  0  0
   -6.5160   -3.8280  -26.3000 C   0  0  0  0  0  0  0  0  0  0  0  0
   -6.2110   -2.8020  -27.3500 C   0  0  0  0  0  0  0  0  0  0  0  0
   -6.8620   -2.9300  -28.5050 N   0  0  0  0  0  0  0  0  0  0  0  0
   -6.6310   -1.9960  -29.4180 C   0  0  0  0  0  0  0  0  0  0  0  0
   -5.7230   -0.9680  -29.2140 C   0  0  0  0  0  0  0  0  0  0  0  0
   -5.0690   -0.9640  -27.9930 C   0  0  0  0  0  0  0  0  0  0  0  0
   -5.3120   -1.8650  -27.0410 N   0  0  0  0  0  0  0  0  0  0  0  0
   -4.3200   -0.2110  -27.7490 H   0  0  0  0  0  0  0  0  0  0  0  0
   -5.5460   -0.2110  -29.9710 H   0  0  0  0  0  0  0  0  0  0  0  0
   -7.2070   -2.0730  -30.3370 H   0  0  0  0  0  0  0  0  0  0  0  0
   -6.8940   -4.7240  -26.7980 H   0  0  0  0  0  0  0  0  0  0  0  0
   -5.5860   -4.0150  -25.7540 H   0  0  0  0  0  0  0  0  0  0  0  0
   -8.8350   -3.5540  -25.6360 C   0  0  0  0  0  0  0  0  0  0  0  0
   -9.2110   -4.0390  -26.6920 O   0  0  0  0  0  0  0  0  0  0  0  0
   -9.7850   -3.1300  -24.5530 C   0  0  0  0  0  0  0  0  0  0  0  0
  -11.1540   -3.2650  -24.7740 C   0  0  0  0  0  0  0  0  0  0  0  0
  -12.0410   -2.9820  -23.7480 C   0  0  0  0  0  0  0  0  0  0  0  0
  -11.5780   -2.5180  -22.5330 C   0  0  0  0  0  0  0  0  0  0  0  0
  -12.4890   -2.1900  -21.6110 F   0  0  0  0  0  0  0  0  0  0  0  0
  -10.2360   -2.3910  -22.2880 C   0  0  0  0  0  0  0  0  0  0  0  0
   -9.3270   -2.6980  -23.3040 C   0  0  0  0  0  0  0  0  0  0  0  0
   -9.8990   -2.0740  -21.3130 H   0  0  0  0  0  0  0  0  0  0  0  0
  -13.1080   -3.1310  -23.7710 H   0  0  0  0  0  0  0  0  0  0  0  0
  -11.4950   -3.5940  -25.7500 H   0  0  0  0  0  0  0  0  0  0  0  0
   -6.0050   -2.6950  -24.1150 H   0  0  0  0  0  0  0  0  0  0  0  0
   -7.1940   -1.4570  -24.5810 H   0  0  0  0  0  0  0  0  0  0  0  0
   -5.4320   -3.6100  -21.4160 H   0  0  0  0  0  0  0  0  0  0  0  0
   -6.5460   -3.9220  -20.0880 H   0  0  0  0  0  0  0  0  0  0  0  0
   -8.4080   -4.2370  -21.5940 H   0  0  0  0  0  0  0  0  0  0  0  0
   -7.7040   -5.5140  -23.6310 H   0  0  0  0  0  0  0  0  0  0  0  0
   -6.7860   -6.0370  -22.2060 H   0  0  0  0  0  0  0  0  0  0  0  0
   -6.0410   -4.9720  -23.4050 H   0  0  0  0  0  0  0  0  0  0  0  0
  1  2  1  0  0  0  0
  1 55  1  0  0  0  0
  1 56  1  0  0  0  0
  1 57  1  0  0  0  0
  2  3  1  0  0  0  0
  2 23  1  0  0  0  0
  2 54  1  1  0  0  0
  3  4  1  0  0  0  0
  3 52  1  0  0  0  0
  3 53  1  0  0  0  0
  4  5  1  0  0  0  0
  4 21  1  0  0  0  0
  5  6  2  0  0  0  0
  5 14  1  0  0  0  0
  6  7  1  0  0  0  0
  6 20  1  0  0  0  0
  7  8  2  0  0  0  0
  8  9  1  0  0  0  0
  8 19  1  0  0  0  0
  9 10  2  0  0  0  0
  9 14  1  0  0  0  0
 10 11  1  0  0  0  0
 10 18  1  0  0  0  0
 11 12  2  0  0  0  0
 11 17  1  0  0  0  0
 12 13  1  0  0  0  0
 12 16  1  0  0  0  0
 13 14  2  0  0  0  0
 13 15  1  0  0  0  0
 21 22  2  0  0  0  0
 23 21  1  1  0  0  0
 23 24  1  0  0  0  0
 23 46  1  0  0  0  0
 24 25  1  0  0  0  0
 24 50  1  0  0  0  0
 24 51  1  0  0  0  0
 25 26  1  0  0  0  0
 25 38  1  0  0  0  0
 26 27  1  0  0  0  0
 26 36  1  0  0  0  0
 26 37  1  0  0  0  0
 27 28  2  0  0  0  0
 27 32  1  0  0  0  0
 28 29  1  0  0  0  0
 29 30  2  0  0  0  0
 29 35  1  0  0  0  0
 30 31  1  0  0  0  0
 30 34  1  0  0  0  0
 31 32  2  0  0  0  0
 31 33  1  0  0  0  0
 38 39  2  0  0  0  0
 38 40  1  0  0  0  0
 40 41  2  0  0  0  0
 40 46  1  0  0  0  0
 41 42  1  0  0  0  0
 41 49  1  0  0  0  0
 42 43  2  0  0  0  0
 42 48  1  0  0  0  0
 43 44  1  0  0  0  0
 43 45  1  0  0  0  0
 45 46  2  0  0  0  0
 45 47  1  0  0  0  0
M  END
>  <MODEL>
       4

$$$$
