best_conformers_80.pdb
 OpenBabel01292518153D

 60 65  0  0  1  0  0  0  0  0999 V2000
   -6.1130   -7.4030  -26.2640 C   0  0  0  0  0  0  0  0  0  0  0  0
   -6.6560   -6.0820  -26.4920 N   0  0  0  0  0  0  0  0  0  0  0  0
   -5.9170   -5.0090  -26.1380 C   0  0  0  0  0  0  0  0  0  0  0  0
   -4.7880   -5.1210  -25.6730 O   0  0  0  0  0  0  0  0  0  0  0  0
   -6.5820   -3.6640  -26.3660 C   0  0  0  0  0  0  0  0  0  0  0  0
   -7.5520   -3.2720  -25.3860 N   0  0  0  0  0  0  0  0  0  0  0  0
   -7.0840   -2.4930  -24.2520 C   0  0  0  0  0  0  0  0  0  0  0  0
   -7.8780   -2.7520  -22.9530 C   0  0  2  0  0  0  0  0  0  0  0  0
   -7.5390   -1.5920  -22.0130 C   0  0  0  0  0  0  0  0  0  0  0  0
   -7.8540   -0.4290  -22.1670 O   0  0  0  0  0  0  0  0  0  0  0  0
   -6.7410   -2.0530  -20.9890 N   0  0  0  0  0  0  0  0  0  0  0  0
   -6.1720   -1.1950  -20.0230 C   0  0  0  0  0  0  0  0  0  0  0  0
   -6.5490   -1.3190  -18.7130 C   0  0  0  0  0  0  0  0  0  0  0  0
   -6.0640   -0.5660  -17.6950 N   0  0  0  0  0  0  0  0  0  0  0  0
   -5.1510    0.3270  -18.0040 C   0  0  0  0  0  0  0  0  0  0  0  0
   -4.6460    0.5340  -19.3200 C   0  0  0  0  0  0  0  0  0  0  0  0
   -3.6490    1.5080  -19.5930 C   0  0  0  0  0  0  0  0  0  0  0  0
   -3.1530    1.6560  -20.8580 C   0  0  0  0  0  0  0  0  0  0  0  0
   -3.6340    0.8450  -21.9130 C   0  0  0  0  0  0  0  0  0  0  0  0
   -4.6110   -0.0880  -21.6810 C   0  0  0  0  0  0  0  0  0  0  0  0
   -5.1550   -0.2540  -20.3740 C   0  0  0  0  0  0  0  0  0  0  0  0
   -4.9860   -0.7000  -22.4990 H   0  0  0  0  0  0  0  0  0  0  0  0
   -3.2300    0.9700  -22.9130 H   0  0  0  0  0  0  0  0  0  0  0  0
   -2.3850    2.3980  -21.0630 H   0  0  0  0  0  0  0  0  0  0  0  0
   -3.2920    2.1220  -18.7710 H   0  0  0  0  0  0  0  0  0  0  0  0
   -4.7590    0.9420  -17.1930 H   0  0  0  0  0  0  0  0  0  0  0  0
   -7.3030   -2.0600  -18.4450 H   0  0  0  0  0  0  0  0  0  0  0  0
   -6.3320   -3.4330  -21.1380 C   0  0  0  0  0  0  0  0  0  0  0  0
   -7.3880   -3.9810  -22.1000 C   0  0  2  0  0  0  0  0  0  0  0  0
   -6.9200   -5.2210  -22.8420 C   0  0  0  0  0  0  0  0  0  0  0  0
   -7.6740   -5.5380  -23.5670 H   0  0  0  0  0  0  0  0  0  0  0  0
   -5.9780   -5.0360  -23.3710 H   0  0  0  0  0  0  0  0  0  0  0  0
   -6.7560   -6.0500  -22.1420 H   0  0  0  0  0  0  0  0  0  0  0  0
   -8.2610   -4.2420  -21.4930 H   0  0  0  0  0  0  0  0  0  0  0  0
   -5.3130   -3.5190  -21.5550 H   0  0  0  0  0  0  0  0  0  0  0  0
   -6.3260   -3.9500  -20.1730 H   0  0  0  0  0  0  0  0  0  0  0  0
   -9.3650   -2.8410  -23.2680 C   0  0  0  0  0  0  0  0  0  0  0  0
  -10.3160   -2.6060  -22.2620 C   0  0  0  0  0  0  0  0  0  0  0  0
  -11.6290   -3.0080  -22.4450 C   0  0  0  0  0  0  0  0  0  0  0  0
  -12.7700   -2.9150  -21.1290 Cl  0  0  0  0  0  0  0  0  0  0  0  0
  -12.0620   -3.5380  -23.6580 C   0  0  0  0  0  0  0  0  0  0  0  0
  -11.1540   -3.6840  -24.6910 C   0  0  0  0  0  0  0  0  0  0  0  0
   -9.8080   -3.3650  -24.4880 C   0  0  0  0  0  0  0  0  0  0  0  0
   -8.8340   -3.7190  -25.5560 C   0  0  0  0  0  0  0  0  0  0  0  0
   -9.1370   -4.4000  -26.5290 O   0  0  0  0  0  0  0  0  0  0  0  0
  -11.4670   -4.0570  -25.6640 H   0  0  0  0  0  0  0  0  0  0  0  0
  -13.0960   -3.8510  -23.7440 H   0  0  0  0  0  0  0  0  0  0  0  0
  -10.0400   -2.1290  -21.3270 H   0  0  0  0  0  0  0  0  0  0  0  0
   -7.1460   -1.4250  -24.4880 H   0  0  0  0  0  0  0  0  0  0  0  0
   -6.0220   -2.7170  -24.1060 H   0  0  0  0  0  0  0  0  0  0  0  0
   -5.6800   -2.6290  -26.9650 C   0  0  0  0  0  0  0  0  0  0  0  0
   -6.7440   -3.2670  -27.8070 C   0  0  0  0  0  0  0  0  0  0  0  0
   -7.6230   -2.6800  -28.0530 H   0  0  0  0  0  0  0  0  0  0  0  0
   -6.4550   -4.0180  -28.5380 H   0  0  0  0  0  0  0  0  0  0  0  0
   -5.8320   -1.5930  -26.6760 H   0  0  0  0  0  0  0  0  0  0  0  0
   -4.6530   -2.9430  -27.1220 H   0  0  0  0  0  0  0  0  0  0  0  0
   -7.6320   -5.9340  -26.7130 H   0  0  0  0  0  0  0  0  0  0  0  0
   -5.1880   -7.5390  -26.8320 H   0  0  0  0  0  0  0  0  0  0  0  0
   -6.8410   -8.1530  -26.5700 H   0  0  0  0  0  0  0  0  0  0  0  0
   -5.8520   -7.5380  -25.2090 H   0  0  0  0  0  0  0  0  0  0  0  0
  1  2  1  0  0  0  0
  1 58  1  0  0  0  0
  1 59  1  0  0  0  0
  1 60  1  0  0  0  0
  2  3  1  0  0  0  0
  2 57  1  0  0  0  0
  3  4  2  0  0  0  0
  3  5  1  0  0  0  0
  5  6  1  0  0  0  0
  5 51  1  0  0  0  0
  5 52  1  0  0  0  0
  6  7  1  0  0  0  0
  6 44  1  0  0  0  0
  7  8  1  0  0  0  0
  7 49  1  0  0  0  0
  7 50  1  0  0  0  0
  8  9  1  1  0  0  0
  8 29  1  0  0  0  0
  8 37  1  0  0  0  0
  9 10  2  0  0  0  0
  9 11  1  0  0  0  0
 11 12  1  0  0  0  0
 11 28  1  0  0  0  0
 12 13  2  0  0  0  0
 12 21  1  0  0  0  0
 13 14  1  0  0  0  0
 13 27  1  0  0  0  0
 14 15  2  0  0  0  0
 15 16  1  0  0  0  0
 15 26  1  0  0  0  0
 16 17  2  0  0  0  0
 16 21  1  0  0  0  0
 17 18  1  0  0  0  0
 17 25  1  0  0  0  0
 18 19  2  0  0  0  0
 18 24  1  0  0  0  0
 19 20  1  0  0  0  0
 19 23  1  0  0  0  0
 20 21  2  0  0  0  0
 20 22  1  0  0  0  0
 28 29  1  0  0  0  0
 28 35  1  0  0  0  0
 28 36  1  0  0  0  0
 29 30  1  0  0  0  0
 29 34  1  1  0  0  0
 30 31  1  0  0  0  0
 30 32  1  0  0  0  0
 30 33  1  0  0  0  0
 37 38  2  0  0  0  0
 37 43  1  0  0  0  0
 38 39  1  0  0  0  0
 38 48  1  0  0  0  0
 39 40  1  0  0  0  0
 39 41  2  0  0  0  0
 41 42  1  0  0  0  0
 41 47  1  0  0  0  0
 42 43  2  0  0  0  0
 42 46  1  0  0  0  0
 43 44  1  0  0  0  0
 44 45  2  0  0  0  0
 51 52  1  0  0  0  0
 51 55  1  0  0  0  0
 51 56  1  0  0  0  0
 52 53  1  0  0  0  0
 52 54  1  0  0  0  0
M  END
>  <MODEL>
       1

$$$$
best_conformers_80.pdb
 OpenBabel01292518153D

 60 65  0  0  1  0  0  0  0  0999 V2000
   -7.5190   -1.3530  -29.5360 C   0  0  0  0  0  0  0  0  0  0  0  0
   -7.3720   -2.4120  -28.5680 N   0  0  0  0  0  0  0  0  0  0  0  0
   -6.6170   -2.2060  -27.4690 C   0  0  0  0  0  0  0  0  0  0  0  0
   -5.9610   -1.1880  -27.2760 O   0  0  0  0  0  0  0  0  0  0  0  0
   -6.5900   -3.3750  -26.5080 C   0  0  0  0  0  0  0  0  0  0  0  0
   -7.4770   -3.2990  -25.3850 N   0  0  0  0  0  0  0  0  0  0  0  0
   -7.0420   -2.4430  -24.2830 C   0  0  0  0  0  0  0  0  0  0  0  0
   -7.8340   -2.6920  -22.9850 C   0  0  2  0  0  0  0  0  0  0  0  0
   -7.5080   -1.5470  -22.0210 C   0  0  0  0  0  0  0  0  0  0  0  0
   -7.8270   -0.3790  -22.1300 O   0  0  0  0  0  0  0  0  0  0  0  0
   -6.7580   -2.0460  -20.9820 N   0  0  0  0  0  0  0  0  0  0  0  0
   -6.1650   -1.2030  -20.0220 C   0  0  0  0  0  0  0  0  0  0  0  0
   -6.5370   -1.3210  -18.7080 C   0  0  0  0  0  0  0  0  0  0  0  0
   -6.0530   -0.5590  -17.6980 N   0  0  0  0  0  0  0  0  0  0  0  0
   -5.1400    0.3310  -18.0180 C   0  0  0  0  0  0  0  0  0  0  0  0
   -4.6410    0.5270  -19.3380 C   0  0  0  0  0  0  0  0  0  0  0  0
   -3.6420    1.4960  -19.6170 C   0  0  0  0  0  0  0  0  0  0  0  0
   -3.1560    1.6470  -20.8860 C   0  0  0  0  0  0  0  0  0  0  0  0
   -3.6410    0.8390  -21.9380 C   0  0  0  0  0  0  0  0  0  0  0  0
   -4.6130   -0.0970  -21.6990 C   0  0  0  0  0  0  0  0  0  0  0  0
   -5.1500   -0.2670  -20.3870 C   0  0  0  0  0  0  0  0  0  0  0  0
   -4.9830   -0.7010  -22.5220 H   0  0  0  0  0  0  0  0  0  0  0  0
   -3.2410    0.9630  -22.9410 H   0  0  0  0  0  0  0  0  0  0  0  0
   -2.3900    2.3880  -21.0940 H   0  0  0  0  0  0  0  0  0  0  0  0
   -3.2790    2.1100  -18.7980 H   0  0  0  0  0  0  0  0  0  0  0  0
   -4.7320    0.9450  -17.2150 H   0  0  0  0  0  0  0  0  0  0  0  0
   -7.2960   -2.0540  -18.4380 H   0  0  0  0  0  0  0  0  0  0  0  0
   -6.3790   -3.4330  -21.1360 C   0  0  0  0  0  0  0  0  0  0  0  0
   -7.4050   -3.9510  -22.1440 C   0  0  2  0  0  0  0  0  0  0  0  0
   -6.9400   -5.1780  -22.9110 C   0  0  0  0  0  0  0  0  0  0  0  0
   -6.8170   -6.0300  -22.2320 H   0  0  0  0  0  0  0  0  0  0  0  0
   -7.6650   -5.4450  -23.6850 H   0  0  0  0  0  0  0  0  0  0  0  0
   -5.9750   -4.9860  -23.3920 H   0  0  0  0  0  0  0  0  0  0  0  0
   -8.3020   -4.2200  -21.5750 H   0  0  0  0  0  0  0  0  0  0  0  0
   -6.4230   -3.9390  -20.1690 H   0  0  0  0  0  0  0  0  0  0  0  0
   -5.3490   -3.5340  -21.5120 H   0  0  0  0  0  0  0  0  0  0  0  0
   -9.3080   -2.7470  -23.3230 C   0  0  0  0  0  0  0  0  0  0  0  0
  -10.2670   -2.4660  -22.3420 C   0  0  0  0  0  0  0  0  0  0  0  0
  -11.5880   -2.8210  -22.5660 C   0  0  0  0  0  0  0  0  0  0  0  0
  -12.8090   -2.5740  -21.3660 Cl  0  0  0  0  0  0  0  0  0  0  0  0
  -11.9960   -3.4240  -23.7510 C   0  0  0  0  0  0  0  0  0  0  0  0
  -11.0750   -3.5730  -24.7640 C   0  0  0  0  0  0  0  0  0  0  0  0
   -9.7430   -3.2290  -24.5600 C   0  0  0  0  0  0  0  0  0  0  0  0
   -8.8080   -3.4560  -25.6850 C   0  0  0  0  0  0  0  0  0  0  0  0
   -9.1820   -3.8030  -26.8030 O   0  0  0  0  0  0  0  0  0  0  0  0
  -11.3550   -3.9650  -25.7340 H   0  0  0  0  0  0  0  0  0  0  0  0
  -13.0180   -3.7770  -23.8460 H   0  0  0  0  0  0  0  0  0  0  0  0
   -9.9630   -2.0040  -21.4100 H   0  0  0  0  0  0  0  0  0  0  0  0
   -5.9730   -2.6010  -24.1270 H   0  0  0  0  0  0  0  0  0  0  0  0
   -7.1480   -1.3910  -24.5700 H   0  0  0  0  0  0  0  0  0  0  0  0
   -5.2230   -3.9270  -26.3080 C   0  0  0  0  0  0  0  0  0  0  0  0
   -6.2520   -4.7250  -27.0620 C   0  0  0  0  0  0  0  0  0  0  0  0
   -6.6950   -5.5570  -26.5250 H   0  0  0  0  0  0  0  0  0  0  0  0
   -6.1860   -4.8320  -28.1420 H   0  0  0  0  0  0  0  0  0  0  0  0
   -4.4390   -3.4130  -26.8510 H   0  0  0  0  0  0  0  0  0  0  0  0
   -4.9670   -4.2690  -25.3110 H   0  0  0  0  0  0  0  0  0  0  0  0
   -8.0500   -3.1620  -28.5130 H   0  0  0  0  0  0  0  0  0  0  0  0
   -8.2120   -1.6750  -30.3130 H   0  0  0  0  0  0  0  0  0  0  0  0
   -6.5480   -1.1370  -29.9930 H   0  0  0  0  0  0  0  0  0  0  0  0
   -7.9030   -0.4370  -29.0720 H   0  0  0  0  0  0  0  0  0  0  0  0
  1  2  1  0  0  0  0
  1 58  1  0  0  0  0
  1 59  1  0  0  0  0
  1 60  1  0  0  0  0
  2  3  1  0  0  0  0
  2 57  1  0  0  0  0
  3  4  2  0  0  0  0
  3  5  1  0  0  0  0
  5  6  1  0  0  0  0
  5 51  1  0  0  0  0
  5 52  1  0  0  0  0
  6  7  1  0  0  0  0
  6 44  1  0  0  0  0
  7  8  1  0  0  0  0
  7 49  1  0  0  0  0
  7 50  1  0  0  0  0
  8  9  1  1  0  0  0
  8 29  1  0  0  0  0
  8 37  1  0  0  0  0
  9 10  2  0  0  0  0
  9 11  1  0  0  0  0
 11 12  1  0  0  0  0
 11 28  1  0  0  0  0
 12 13  2  0  0  0  0
 12 21  1  0  0  0  0
 13 14  1  0  0  0  0
 13 27  1  0  0  0  0
 14 15  2  0  0  0  0
 15 16  1  0  0  0  0
 15 26  1  0  0  0  0
 16 17  2  0  0  0  0
 16 21  1  0  0  0  0
 17 18  1  0  0  0  0
 17 25  1  0  0  0  0
 18 19  2  0  0  0  0
 18 24  1  0  0  0  0
 19 20  1  0  0  0  0
 19 23  1  0  0  0  0
 20 21  2  0  0  0  0
 20 22  1  0  0  0  0
 28 29  1  0  0  0  0
 28 35  1  0  0  0  0
 28 36  1  0  0  0  0
 29 30  1  0  0  0  0
 29 34  1  1  0  0  0
 30 31  1  0  0  0  0
 30 32  1  0  0  0  0
 30 33  1  0  0  0  0
 37 38  2  0  0  0  0
 37 43  1  0  0  0  0
 38 39  1  0  0  0  0
 38 48  1  0  0  0  0
 39 40  1  0  0  0  0
 39 41  2  0  0  0  0
 41 42  1  0  0  0  0
 41 47  1  0  0  0  0
 42 43  2  0  0  0  0
 42 46  1  0  0  0  0
 43 44  1  0  0  0  0
 44 45  2  0  0  0  0
 51 52  1  0  0  0  0
 51 55  1  0  0  0  0
 51 56  1  0  0  0  0
 52 53  1  0  0  0  0
 52 54  1  0  0  0  0
M  END
>  <MODEL>
       2

$$$$
