best_conformers_6.pdb
 OpenBabel01292518153D

 43 45  0  0  0  0  0  0  0  0999 V2000
   -8.5240   -7.4240  -25.3720 C   0  0  0  0  0  0  0  0  0  0  0  0
   -8.2550   -5.9310  -25.2430 C   0  0  0  0  0  0  0  0  0  0  0  0
   -6.7820   -5.5940  -24.9700 C   0  0  0  0  0  0  0  0  0  0  0  0
   -6.5000   -4.0880  -25.0610 C   0  0  0  0  0  0  0  0  0  0  0  0
   -6.7310   -3.3330  -23.7550 C   0  0  0  0  0  0  0  0  0  0  0  0
   -5.9780   -3.9150  -22.6460 N   0  0  0  0  0  0  0  0  0  0  0  0
   -5.7950   -3.2920  -21.4360 C   0  0  0  0  0  0  0  0  0  0  0  0
   -4.9360   -3.6620  -20.6490 O   0  0  0  0  0  0  0  0  0  0  0  0
   -6.7440   -2.1320  -21.0370 C   0  0  0  0  0  0  0  0  0  0  0  0
   -6.1380   -1.2110  -20.0030 C   0  0  0  0  0  0  0  0  0  0  0  0
   -6.5050   -1.2810  -18.6830 C   0  0  0  0  0  0  0  0  0  0  0  0
   -6.0140   -0.5120  -17.6720 N   0  0  0  0  0  0  0  0  0  0  0  0
   -5.0960    0.3690  -17.9980 C   0  0  0  0  0  0  0  0  0  0  0  0
   -4.6050    0.5530  -19.3210 C   0  0  0  0  0  0  0  0  0  0  0  0
   -3.6070    1.5160  -19.6270 C   0  0  0  0  0  0  0  0  0  0  0  0
   -3.1520    1.6680  -20.9100 C   0  0  0  0  0  0  0  0  0  0  0  0
   -3.6770    0.8600  -21.9430 C   0  0  0  0  0  0  0  0  0  0  0  0
   -4.6440   -0.0770  -21.6740 C   0  0  0  0  0  0  0  0  0  0  0  0
   -5.1370   -0.2570  -20.3540 C   0  0  0  0  0  0  0  0  0  0  0  0
   -5.0340   -0.6880  -22.4830 H   0  0  0  0  0  0  0  0  0  0  0  0
   -3.3150    0.9880  -22.9590 H   0  0  0  0  0  0  0  0  0  0  0  0
   -2.3910    2.4080  -21.1460 H   0  0  0  0  0  0  0  0  0  0  0  0
   -3.2110    2.1360  -18.8250 H   0  0  0  0  0  0  0  0  0  0  0  0
   -4.6880    0.9920  -17.1990 H   0  0  0  0  0  0  0  0  0  0  0  0
   -7.2610   -1.9990  -18.3680 H   0  0  0  0  0  0  0  0  0  0  0  0
   -7.6440   -2.5890  -20.6000 H   0  0  0  0  0  0  0  0  0  0  0  0
   -7.0940   -1.5470  -21.8980 H   0  0  0  0  0  0  0  0  0  0  0  0
   -5.3490   -5.2170  -22.8810 C   0  0  0  0  0  0  0  0  0  0  0  0
   -6.3060   -6.1510  -23.6140 C   0  0  0  0  0  0  0  0  0  0  0  0
   -5.8310   -7.1270  -23.7520 H   0  0  0  0  0  0  0  0  0  0  0  0
   -7.1620   -6.3320  -22.9560 H   0  0  0  0  0  0  0  0  0  0  0  0
   -4.4200   -5.1090  -23.4530 H   0  0  0  0  0  0  0  0  0  0  0  0
   -5.0660   -5.6360  -21.9170 H   0  0  0  0  0  0  0  0  0  0  0  0
   -6.4250   -2.2920  -23.9110 H   0  0  0  0  0  0  0  0  0  0  0  0
   -7.8020   -3.3120  -23.5240 H   0  0  0  0  0  0  0  0  0  0  0  0
   -7.1250   -3.6500  -25.8450 H   0  0  0  0  0  0  0  0  0  0  0  0
   -5.4710   -3.9210  -25.4010 H   0  0  0  0  0  0  0  0  0  0  0  0
   -6.1950   -6.0740  -25.7650 H   0  0  0  0  0  0  0  0  0  0  0  0
   -8.8790   -5.5080  -24.4480 H   0  0  0  0  0  0  0  0  0  0  0  0
   -8.5730   -5.4350  -26.1670 H   0  0  0  0  0  0  0  0  0  0  0  0
   -9.5700   -7.6220  -25.6250 H   0  0  0  0  0  0  0  0  0  0  0  0
   -7.9050   -7.8630  -26.1600 H   0  0  0  0  0  0  0  0  0  0  0  0
   -8.3000   -7.9590  -24.4450 H   0  0  0  0  0  0  0  0  0  0  0  0
  1  2  1  0  0  0  0
  1 41  1  0  0  0  0
  1 42  1  0  0  0  0
  1 43  1  0  0  0  0
  2  3  1  0  0  0  0
  2 39  1  0  0  0  0
  2 40  1  0  0  0  0
  3  4  1  0  0  0  0
  3 29  1  0  0  0  0
  3 38  1  0  0  0  0
  4  5  1  0  0  0  0
  4 36  1  0  0  0  0
  4 37  1  0  0  0  0
  5  6  1  0  0  0  0
  5 34  1  0  0  0  0
  5 35  1  0  0  0  0
  6  7  1  0  0  0  0
  6 28  1  0  0  0  0
  7  8  2  0  0  0  0
  7  9  1  0  0  0  0
  9 10  1  0  0  0  0
  9 26  1  0  0  0  0
  9 27  1  0  0  0  0
 10 11  2  0  0  0  0
 10 19  1  0  0  0  0
 11 12  1  0  0  0  0
 11 25  1  0  0  0  0
 12 13  2  0  0  0  0
 13 14  1  0  0  0  0
 13 24  1  0  0  0  0
 14 15  2  0  0  0  0
 14 19  1  0  0  0  0
 15 16  1  0  0  0  0
 15 23  1  0  0  0  0
 16 17  2  0  0  0  0
 16 22  1  0  0  0  0
 17 18  1  0  0  0  0
 17 21  1  0  0  0  0
 18 19  2  0  0  0  0
 18 20  1  0  0  0  0
 28 29  1  0  0  0  0
 28 32  1  0  0  0  0
 28 33  1  0  0  0  0
 29 30  1  0  0  0  0
 29 31  1  0  0  0  0
M  END
>  <MODEL>
       1

$$$$
best_conformers_6.pdb
 OpenBabel01292518153D

 43 45  0  0  0  0  0  0  0  0999 V2000
   -8.5240   -7.4240  -25.3710 C   0  0  0  0  0  0  0  0  0  0  0  0
   -8.2550   -5.9310  -25.2430 C   0  0  0  0  0  0  0  0  0  0  0  0
   -6.7820   -5.5940  -24.9700 C   0  0  0  0  0  0  0  0  0  0  0  0
   -6.3060   -6.1510  -23.6140 C   0  0  0  0  0  0  0  0  0  0  0  0
   -5.3490   -5.2170  -22.8810 C   0  0  0  0  0  0  0  0  0  0  0  0
   -5.9780   -3.9150  -22.6460 N   0  0  0  0  0  0  0  0  0  0  0  0
   -5.7950   -3.2920  -21.4360 C   0  0  0  0  0  0  0  0  0  0  0  0
   -4.9360   -3.6620  -20.6490 O   0  0  0  0  0  0  0  0  0  0  0  0
   -6.7440   -2.1320  -21.0370 C   0  0  0  0  0  0  0  0  0  0  0  0
   -6.1380   -1.2110  -20.0030 C   0  0  0  0  0  0  0  0  0  0  0  0
   -6.5050   -1.2810  -18.6830 C   0  0  0  0  0  0  0  0  0  0  0  0
   -6.0140   -0.5120  -17.6720 N   0  0  0  0  0  0  0  0  0  0  0  0
   -5.0960    0.3690  -17.9980 C   0  0  0  0  0  0  0  0  0  0  0  0
   -4.6050    0.5530  -19.3210 C   0  0  0  0  0  0  0  0  0  0  0  0
   -3.6070    1.5160  -19.6270 C   0  0  0  0  0  0  0  0  0  0  0  0
   -3.1520    1.6680  -20.9100 C   0  0  0  0  0  0  0  0  0  0  0  0
   -3.6770    0.8600  -21.9430 C   0  0  0  0  0  0  0  0  0  0  0  0
   -4.6440   -0.0770  -21.6740 C   0  0  0  0  0  0  0  0  0  0  0  0
   -5.1370   -0.2570  -20.3540 C   0  0  0  0  0  0  0  0  0  0  0  0
   -5.0340   -0.6880  -22.4830 H   0  0  0  0  0  0  0  0  0  0  0  0
   -3.3150    0.9880  -22.9590 H   0  0  0  0  0  0  0  0  0  0  0  0
   -2.3910    2.4080  -21.1460 H   0  0  0  0  0  0  0  0  0  0  0  0
   -3.2110    2.1360  -18.8250 H   0  0  0  0  0  0  0  0  0  0  0  0
   -4.6880    0.9920  -17.1990 H   0  0  0  0  0  0  0  0  0  0  0  0
   -7.2610   -1.9990  -18.3680 H   0  0  0  0  0  0  0  0  0  0  0  0
   -7.0940   -1.5470  -21.8980 H   0  0  0  0  0  0  0  0  0  0  0  0
   -7.6440   -2.5890  -20.6000 H   0  0  0  0  0  0  0  0  0  0  0  0
   -6.7310   -3.3330  -23.7550 C   0  0  0  0  0  0  0  0  0  0  0  0
   -6.5000   -4.0880  -25.0610 C   0  0  0  0  0  0  0  0  0  0  0  0
   -5.4710   -3.9210  -25.4000 H   0  0  0  0  0  0  0  0  0  0  0  0
   -7.1250   -3.6500  -25.8450 H   0  0  0  0  0  0  0  0  0  0  0  0
   -7.8020   -3.3120  -23.5240 H   0  0  0  0  0  0  0  0  0  0  0  0
   -6.4250   -2.2920  -23.9110 H   0  0  0  0  0  0  0  0  0  0  0  0
   -4.4200   -5.1090  -23.4530 H   0  0  0  0  0  0  0  0  0  0  0  0
   -5.0660   -5.6360  -21.9170 H   0  0  0  0  0  0  0  0  0  0  0  0
   -7.1620   -6.3320  -22.9560 H   0  0  0  0  0  0  0  0  0  0  0  0
   -5.8310   -7.1270  -23.7520 H   0  0  0  0  0  0  0  0  0  0  0  0
   -6.1950   -6.0740  -25.7650 H   0  0  0  0  0  0  0  0  0  0  0  0
   -8.8790   -5.5080  -24.4480 H   0  0  0  0  0  0  0  0  0  0  0  0
   -8.5740   -5.4350  -26.1670 H   0  0  0  0  0  0  0  0  0  0  0  0
   -8.3000   -7.9590  -24.4450 H   0  0  0  0  0  0  0  0  0  0  0  0
   -7.9060   -7.8630  -26.1600 H   0  0  0  0  0  0  0  0  0  0  0  0
   -9.5700   -7.6220  -25.6240 H   0  0  0  0  0  0  0  0  0  0  0  0
  1  2  1  0  0  0  0
  1 41  1  0  0  0  0
  1 42  1  0  0  0  0
  1 43  1  0  0  0  0
  2  3  1  0  0  0  0
  2 39  1  0  0  0  0
  2 40  1  0  0  0  0
  3  4  1  0  0  0  0
  3 29  1  0  0  0  0
  3 38  1  0  0  0  0
  4  5  1  0  0  0  0
  4 36  1  0  0  0  0
  4 37  1  0  0  0  0
  5  6  1  0  0  0  0
  5 34  1  0  0  0  0
  5 35  1  0  0  0  0
  6  7  1  0  0  0  0
  6 28  1  0  0  0  0
  7  8  2  0  0  0  0
  7  9  1  0  0  0  0
  9 10  1  0  0  0  0
  9 26  1  0  0  0  0
  9 27  1  0  0  0  0
 10 11  2  0  0  0  0
 10 19  1  0  0  0  0
 11 12  1  0  0  0  0
 11 25  1  0  0  0  0
 12 13  2  0  0  0  0
 13 14  1  0  0  0  0
 13 24  1  0  0  0  0
 14 15  2  0  0  0  0
 14 19  1  0  0  0  0
 15 16  1  0  0  0  0
 15 23  1  0  0  0  0
 16 17  2  0  0  0  0
 16 22  1  0  0  0  0
 17 18  1  0  0  0  0
 17 21  1  0  0  0  0
 18 19  2  0  0  0  0
 18 20  1  0  0  0  0
 28 29  1  0  0  0  0
 28 32  1  0  0  0  0
 28 33  1  0  0  0  0
 29 30  1  0  0  0  0
 29 31  1  0  0  0  0
M  END
>  <MODEL>
       2

$$$$
best_conformers_6.pdb
 OpenBabel01292518153D

 43 45  0  0  0  0  0  0  0  0999 V2000
  -10.5730   -4.9220  -26.5810 C   0  0  0  0  0  0  0  0  0  0  0  0
  -11.2620   -4.2340  -25.3850 C   0  0  0  0  0  0  0  0  0  0  0  0
  -10.3730   -3.2840  -24.5580 C   0  0  0  0  0  0  0  0  0  0  0  0
  -11.0830   -2.5680  -23.3990 C   0  0  0  0  0  0  0  0  0  0  0  0
  -10.1560   -1.5650  -22.7190 C   0  0  0  0  0  0  0  0  0  0  0  0
   -8.8680   -2.1740  -22.3970 N   0  0  0  0  0  0  0  0  0  0  0  0
   -7.9870   -1.3850  -21.7150 C   0  0  0  0  0  0  0  0  0  0  0  0
   -8.1470   -0.1780  -21.6210 O   0  0  0  0  0  0  0  0  0  0  0  0
   -6.8190   -2.1010  -21.0340 C   0  0  0  0  0  0  0  0  0  0  0  0
   -6.1540   -1.2320  -20.0140 C   0  0  0  0  0  0  0  0  0  0  0  0
   -6.5440   -1.3060  -18.7020 C   0  0  0  0  0  0  0  0  0  0  0  0
   -6.0640   -0.5440  -17.6860 N   0  0  0  0  0  0  0  0  0  0  0  0
   -5.1410    0.3350  -18.0030 C   0  0  0  0  0  0  0  0  0  0  0  0
   -4.6440    0.5300  -19.3230 C   0  0  0  0  0  0  0  0  0  0  0  0
   -3.6500    1.4980  -19.6160 C   0  0  0  0  0  0  0  0  0  0  0  0
   -3.1970    1.6660  -20.8990 C   0  0  0  0  0  0  0  0  0  0  0  0
   -3.7270    0.8770  -21.9470 C   0  0  0  0  0  0  0  0  0  0  0  0
   -4.6980   -0.0610  -21.6880 C   0  0  0  0  0  0  0  0  0  0  0  0
   -5.1720   -0.2640  -20.3670 C   0  0  0  0  0  0  0  0  0  0  0  0
   -5.1180   -0.6410  -22.5050 H   0  0  0  0  0  0  0  0  0  0  0  0
   -3.3650    1.0190  -22.9590 H   0  0  0  0  0  0  0  0  0  0  0  0
   -2.4390    2.4090  -21.1250 H   0  0  0  0  0  0  0  0  0  0  0  0
   -3.2590    2.1100  -18.8080 H   0  0  0  0  0  0  0  0  0  0  0  0
   -4.7330    0.9530  -17.2030 H   0  0  0  0  0  0  0  0  0  0  0  0
   -7.3060   -2.0270  -18.4090 H   0  0  0  0  0  0  0  0  0  0  0  0
   -6.1150   -2.4500  -21.8030 H   0  0  0  0  0  0  0  0  0  0  0  0
   -7.2320   -2.9860  -20.5290 H   0  0  0  0  0  0  0  0  0  0  0  0
   -8.7320   -3.6110  -22.6040 C   0  0  0  0  0  0  0  0  0  0  0  0
   -9.1320   -4.0190  -24.0230 C   0  0  0  0  0  0  0  0  0  0  0  0
   -9.3250   -5.0930  -24.0040 H   0  0  0  0  0  0  0  0  0  0  0  0
   -8.2900   -3.8850  -24.7110 H   0  0  0  0  0  0  0  0  0  0  0  0
   -9.3500   -4.1690  -21.8840 H   0  0  0  0  0  0  0  0  0  0  0  0
   -7.6970   -3.9170  -22.4270 H   0  0  0  0  0  0  0  0  0  0  0  0
  -10.6080   -1.1730  -21.7960 H   0  0  0  0  0  0  0  0  0  0  0  0
   -9.9710   -0.6960  -23.3600 H   0  0  0  0  0  0  0  0  0  0  0  0
  -11.9840   -2.0420  -23.7280 H   0  0  0  0  0  0  0  0  0  0  0  0
  -11.4340   -3.2900  -22.6560 H   0  0  0  0  0  0  0  0  0  0  0  0
  -10.0340   -2.4820  -25.2260 H   0  0  0  0  0  0  0  0  0  0  0  0
  -12.1030   -3.6560  -25.7650 H   0  0  0  0  0  0  0  0  0  0  0  0
  -11.6790   -5.0040  -24.7210 H   0  0  0  0  0  0  0  0  0  0  0  0
  -11.2820   -5.5260  -27.1650 H   0  0  0  0  0  0  0  0  0  0  0  0
   -9.7720   -5.5940  -26.2470 H   0  0  0  0  0  0  0  0  0  0  0  0
  -10.1300   -4.2050  -27.2880 H   0  0  0  0  0  0  0  0  0  0  0  0
  1  2  1  0  0  0  0
  1 41  1  0  0  0  0
  1 42  1  0  0  0  0
  1 43  1  0  0  0  0
  2  3  1  0  0  0  0
  2 39  1  0  0  0  0
  2 40  1  0  0  0  0
  3  4  1  0  0  0  0
  3 29  1  0  0  0  0
  3 38  1  0  0  0  0
  4  5  1  0  0  0  0
  4 36  1  0  0  0  0
  4 37  1  0  0  0  0
  5  6  1  0  0  0  0
  5 34  1  0  0  0  0
  5 35  1  0  0  0  0
  6  7  1  0  0  0  0
  6 28  1  0  0  0  0
  7  8  2  0  0  0  0
  7  9  1  0  0  0  0
  9 10  1  0  0  0  0
  9 26  1  0  0  0  0
  9 27  1  0  0  0  0
 10 11  2  0  0  0  0
 10 19  1  0  0  0  0
 11 12  1  0  0  0  0
 11 25  1  0  0  0  0
 12 13  2  0  0  0  0
 13 14  1  0  0  0  0
 13 24  1  0  0  0  0
 14 15  2  0  0  0  0
 14 19  1  0  0  0  0
 15 16  1  0  0  0  0
 15 23  1  0  0  0  0
 16 17  2  0  0  0  0
 16 22  1  0  0  0  0
 17 18  1  0  0  0  0
 17 21  1  0  0  0  0
 18 19  2  0  0  0  0
 18 20  1  0  0  0  0
 28 29  1  0  0  0  0
 28 32  1  0  0  0  0
 28 33  1  0  0  0  0
 29 30  1  0  0  0  0
 29 31  1  0  0  0  0
M  END
>  <MODEL>
       3

$$$$
best_conformers_6.pdb
 OpenBabel01292518153D

 43 45  0  0  0  0  0  0  0  0999 V2000
  -10.6000   -4.9310  -26.5690 C   0  0  0  0  0  0  0  0  0  0  0  0
  -11.2770   -4.2520  -25.3590 C   0  0  0  0  0  0  0  0  0  0  0  0
  -10.3940   -3.2880  -24.5390 C   0  0  0  0  0  0  0  0  0  0  0  0
   -9.1490   -4.0210  -24.0120 C   0  0  0  0  0  0  0  0  0  0  0  0
   -8.7350   -3.6110  -22.5990 C   0  0  0  0  0  0  0  0  0  0  0  0
   -8.8750   -2.1770  -22.3890 N   0  0  0  0  0  0  0  0  0  0  0  0
   -7.9840   -1.3860  -21.7200 C   0  0  0  0  0  0  0  0  0  0  0  0
   -8.1370   -0.1760  -21.6340 O   0  0  0  0  0  0  0  0  0  0  0  0
   -6.8190   -2.0990  -21.0340 C   0  0  0  0  0  0  0  0  0  0  0  0
   -6.1540   -1.2300  -20.0140 C   0  0  0  0  0  0  0  0  0  0  0  0
   -6.5420   -1.3040  -18.7000 C   0  0  0  0  0  0  0  0  0  0  0  0
   -6.0610   -0.5410  -17.6840 N   0  0  0  0  0  0  0  0  0  0  0  0
   -5.1370    0.3370  -18.0020 C   0  0  0  0  0  0  0  0  0  0  0  0
   -4.6420    0.5310  -19.3230 C   0  0  0  0  0  0  0  0  0  0  0  0
   -3.6460    1.5000  -19.6180 C   0  0  0  0  0  0  0  0  0  0  0  0
   -3.1970    1.6660  -20.8990 C   0  0  0  0  0  0  0  0  0  0  0  0
   -3.7250    0.8790  -21.9470 C   0  0  0  0  0  0  0  0  0  0  0  0
   -4.6970   -0.0610  -21.6900 C   0  0  0  0  0  0  0  0  0  0  0  0
   -5.1700   -0.2620  -20.3650 C   0  0  0  0  0  0  0  0  0  0  0  0
   -5.1180   -0.6400  -22.5040 H   0  0  0  0  0  0  0  0  0  0  0  0
   -3.3650    1.0210  -22.9620 H   0  0  0  0  0  0  0  0  0  0  0  0
   -2.4370    2.4130  -21.1280 H   0  0  0  0  0  0  0  0  0  0  0  0
   -3.2560    2.1120  -18.8080 H   0  0  0  0  0  0  0  0  0  0  0  0
   -4.7270    0.9580  -17.2050 H   0  0  0  0  0  0  0  0  0  0  0  0
   -7.3030   -2.0250  -18.4050 H   0  0  0  0  0  0  0  0  0  0  0  0
   -7.2330   -2.9820  -20.5300 H   0  0  0  0  0  0  0  0  0  0  0  0
   -6.1160   -2.4530  -21.8020 H   0  0  0  0  0  0  0  0  0  0  0  0
  -10.1640   -1.5670  -22.7020 C   0  0  0  0  0  0  0  0  0  0  0  0
  -11.0990   -2.5640  -23.3800 C   0  0  0  0  0  0  0  0  0  0  0  0
  -12.0030   -2.0340  -23.7010 H   0  0  0  0  0  0  0  0  0  0  0  0
  -11.4460   -3.2810  -22.6320 H   0  0  0  0  0  0  0  0  0  0  0  0
   -9.9790   -0.7030  -23.3470 H   0  0  0  0  0  0  0  0  0  0  0  0
  -10.6050   -1.1740  -21.7750 H   0  0  0  0  0  0  0  0  0  0  0  0
   -9.3460   -4.1720  -21.8770 H   0  0  0  0  0  0  0  0  0  0  0  0
   -7.7000   -3.9150  -22.4320 H   0  0  0  0  0  0  0  0  0  0  0  0
   -9.3430   -5.0970  -23.9940 H   0  0  0  0  0  0  0  0  0  0  0  0
   -8.3190   -3.8860  -24.7120 H   0  0  0  0  0  0  0  0  0  0  0  0
  -10.0730   -2.4850  -25.2150 H   0  0  0  0  0  0  0  0  0  0  0  0
  -11.7000   -5.0180  -24.6920 H   0  0  0  0  0  0  0  0  0  0  0  0
  -12.1220   -3.6840  -25.7360 H   0  0  0  0  0  0  0  0  0  0  0  0
  -11.3120   -5.5290  -27.1610 H   0  0  0  0  0  0  0  0  0  0  0  0
  -10.1560   -4.2030  -27.2660 H   0  0  0  0  0  0  0  0  0  0  0  0
   -9.8020   -5.6150  -26.2470 H   0  0  0  0  0  0  0  0  0  0  0  0
  1  2  1  0  0  0  0
  1 41  1  0  0  0  0
  1 42  1  0  0  0  0
  1 43  1  0  0  0  0
  2  3  1  0  0  0  0
  2 39  1  0  0  0  0
  2 40  1  0  0  0  0
  3  4  1  0  0  0  0
  3 29  1  0  0  0  0
  3 38  1  0  0  0  0
  4  5  1  0  0  0  0
  4 36  1  0  0  0  0
  4 37  1  0  0  0  0
  5  6  1  0  0  0  0
  5 34  1  0  0  0  0
  5 35  1  0  0  0  0
  6  7  1  0  0  0  0
  6 28  1  0  0  0  0
  7  8  2  0  0  0  0
  7  9  1  0  0  0  0
  9 10  1  0  0  0  0
  9 26  1  0  0  0  0
  9 27  1  0  0  0  0
 10 11  2  0  0  0  0
 10 19  1  0  0  0  0
 11 12  1  0  0  0  0
 11 25  1  0  0  0  0
 12 13  2  0  0  0  0
 13 14  1  0  0  0  0
 13 24  1  0  0  0  0
 14 15  2  0  0  0  0
 14 19  1  0  0  0  0
 15 16  1  0  0  0  0
 15 23  1  0  0  0  0
 16 17  2  0  0  0  0
 16 22  1  0  0  0  0
 17 18  1  0  0  0  0
 17 21  1  0  0  0  0
 18 19  2  0  0  0  0
 18 20  1  0  0  0  0
 28 29  1  0  0  0  0
 28 32  1  0  0  0  0
 28 33  1  0  0  0  0
 29 30  1  0  0  0  0
 29 31  1  0  0  0  0
M  END
>  <MODEL>
       4

$$$$
best_conformers_6.pdb
 OpenBabel01292518153D

 43 45  0  0  0  0  0  0  0  0999 V2000
  -10.8680   -5.1940  -25.9070 C   0  0  0  0  0  0  0  0  0  0  0  0
   -9.4530   -4.7930  -25.5150 C   0  0  0  0  0  0  0  0  0  0  0  0
   -9.2160   -3.2750  -25.5320 C   0  0  0  0  0  0  0  0  0  0  0  0
  -10.0840   -2.5460  -24.4890 C   0  0  0  0  0  0  0  0  0  0  0  0
   -9.3650   -1.3830  -23.8130 C   0  0  0  0  0  0  0  0  0  0  0  0
   -8.1440   -1.8460  -23.1500 N   0  0  0  0  0  0  0  0  0  0  0  0
   -7.8280   -1.3550  -21.9060 C   0  0  0  0  0  0  0  0  0  0  0  0
   -8.3900   -0.3750  -21.4420 O   0  0  0  0  0  0  0  0  0  0  0  0
   -6.7760   -2.1000  -21.0460 C   0  0  0  0  0  0  0  0  0  0  0  0
   -6.1380   -1.2110  -20.0030 C   0  0  0  0  0  0  0  0  0  0  0  0
   -6.5130   -1.2740  -18.6850 C   0  0  0  0  0  0  0  0  0  0  0  0
   -6.0180   -0.5080  -17.6730 N   0  0  0  0  0  0  0  0  0  0  0  0
   -5.0960    0.3680  -17.9980 C   0  0  0  0  0  0  0  0  0  0  0  0
   -4.6070    0.5550  -19.3210 C   0  0  0  0  0  0  0  0  0  0  0  0
   -3.6120    1.5210  -19.6280 C   0  0  0  0  0  0  0  0  0  0  0  0
   -3.1690    1.6840  -20.9130 C   0  0  0  0  0  0  0  0  0  0  0  0
   -3.7040    0.8850  -21.9490 C   0  0  0  0  0  0  0  0  0  0  0  0
   -4.6640   -0.0570  -21.6790 C   0  0  0  0  0  0  0  0  0  0  0  0
   -5.1430   -0.2520  -20.3560 C   0  0  0  0  0  0  0  0  0  0  0  0
   -5.0670   -0.6560  -22.4910 H   0  0  0  0  0  0  0  0  0  0  0  0
   -3.3530    1.0240  -22.9670 H   0  0  0  0  0  0  0  0  0  0  0  0
   -2.4120    2.4290  -21.1500 H   0  0  0  0  0  0  0  0  0  0  0  0
   -3.2130    2.1380  -18.8260 H   0  0  0  0  0  0  0  0  0  0  0  0
   -4.6870    0.9910  -17.1980 H   0  0  0  0  0  0  0  0  0  0  0  0
   -7.2710   -1.9890  -18.3700 H   0  0  0  0  0  0  0  0  0  0  0  0
   -6.0000   -2.5910  -21.6470 H   0  0  0  0  0  0  0  0  0  0  0  0
   -7.3090   -2.9070  -20.5230 H   0  0  0  0  0  0  0  0  0  0  0  0
   -7.3060   -2.7870  -23.8880 C   0  0  0  0  0  0  0  0  0  0  0  0
   -7.7370   -2.9120  -25.3460 C   0  0  0  0  0  0  0  0  0  0  0  0
   -7.5120   -1.9780  -25.8740 H   0  0  0  0  0  0  0  0  0  0  0  0
   -7.1150   -3.6640  -25.8400 H   0  0  0  0  0  0  0  0  0  0  0  0
   -6.2620   -2.4500  -23.8730 H   0  0  0  0  0  0  0  0  0  0  0  0
   -7.3200   -3.7730  -23.4100 H   0  0  0  0  0  0  0  0  0  0  0  0
   -9.1380   -0.5970  -24.5440 H   0  0  0  0  0  0  0  0  0  0  0  0
  -10.0050   -0.9220  -23.0610 H   0  0  0  0  0  0  0  0  0  0  0  0
  -11.0100   -2.1890  -24.9500 H   0  0  0  0  0  0  0  0  0  0  0  0
  -10.4000   -3.2420  -23.7040 H   0  0  0  0  0  0  0  0  0  0  0  0
   -9.5050   -2.9220  -26.5310 H   0  0  0  0  0  0  0  0  0  0  0  0
   -9.2160   -5.1870  -24.5200 H   0  0  0  0  0  0  0  0  0  0  0  0
   -8.7470   -5.2750  -26.2010 H   0  0  0  0  0  0  0  0  0  0  0  0
  -10.9820   -6.2810  -25.9420 H   0  0  0  0  0  0  0  0  0  0  0  0
  -11.6130   -4.8040  -25.2080 H   0  0  0  0  0  0  0  0  0  0  0  0
  -11.1150   -4.8080  -26.9000 H   0  0  0  0  0  0  0  0  0  0  0  0
  1  2  1  0  0  0  0
  1 41  1  0  0  0  0
  1 42  1  0  0  0  0
  1 43  1  0  0  0  0
  2  3  1  0  0  0  0
  2 39  1  0  0  0  0
  2 40  1  0  0  0  0
  3  4  1  0  0  0  0
  3 29  1  0  0  0  0
  3 38  1  0  0  0  0
  4  5  1  0  0  0  0
  4 36  1  0  0  0  0
  4 37  1  0  0  0  0
  5  6  1  0  0  0  0
  5 34  1  0  0  0  0
  5 35  1  0  0  0  0
  6  7  1  0  0  0  0
  6 28  1  0  0  0  0
  7  8  2  0  0  0  0
  7  9  1  0  0  0  0
  9 10  1  0  0  0  0
  9 26  1  0  0  0  0
  9 27  1  0  0  0  0
 10 11  2  0  0  0  0
 10 19  1  0  0  0  0
 11 12  1  0  0  0  0
 11 25  1  0  0  0  0
 12 13  2  0  0  0  0
 13 14  1  0  0  0  0
 13 24  1  0  0  0  0
 14 15  2  0  0  0  0
 14 19  1  0  0  0  0
 15 16  1  0  0  0  0
 15 23  1  0  0  0  0
 16 17  2  0  0  0  0
 16 22  1  0  0  0  0
 17 18  1  0  0  0  0
 17 21  1  0  0  0  0
 18 19  2  0  0  0  0
 18 20  1  0  0  0  0
 28 29  1  0  0  0  0
 28 32  1  0  0  0  0
 28 33  1  0  0  0  0
 29 30  1  0  0  0  0
 29 31  1  0  0  0  0
M  END
>  <MODEL>
       5

$$$$
best_conformers_6.pdb
 OpenBabel01292518153D

 43 45  0  0  0  0  0  0  0  0999 V2000
   -5.8130   -0.8400  -28.1640 C   0  0  0  0  0  0  0  0  0  0  0  0
   -5.8640    0.0580  -26.9290 C   0  0  0  0  0  0  0  0  0  0  0  0
   -6.8730   -0.3910  -25.8670 C   0  0  0  0  0  0  0  0  0  0  0  0
   -7.0560    0.6760  -24.7910 C   0  0  0  0  0  0  0  0  0  0  0  0
   -8.0420    0.2410  -23.7100 C   0  0  0  0  0  0  0  0  0  0  0  0
   -7.6210   -1.0340  -23.1450 N   0  0  0  0  0  0  0  0  0  0  0  0
   -7.8580   -1.2630  -21.7860 C   0  0  0  0  0  0  0  0  0  0  0  0
   -8.7880   -0.7630  -21.1930 O   0  0  0  0  0  0  0  0  0  0  0  0
   -6.8010   -2.0920  -21.0350 C   0  0  0  0  0  0  0  0  0  0  0  0
   -6.1300   -1.2170  -19.9950 C   0  0  0  0  0  0  0  0  0  0  0  0
   -6.5110   -1.2760  -18.6800 C   0  0  0  0  0  0  0  0  0  0  0  0
   -6.0170   -0.5060  -17.6720 N   0  0  0  0  0  0  0  0  0  0  0  0
   -5.0950    0.3690  -17.9990 C   0  0  0  0  0  0  0  0  0  0  0  0
   -4.6060    0.5540  -19.3210 C   0  0  0  0  0  0  0  0  0  0  0  0
   -3.6180    1.5230  -19.6300 C   0  0  0  0  0  0  0  0  0  0  0  0
   -3.1750    1.6890  -20.9140 C   0  0  0  0  0  0  0  0  0  0  0  0
   -3.7070    0.8870  -21.9500 C   0  0  0  0  0  0  0  0  0  0  0  0
   -4.6620   -0.0610  -21.6780 C   0  0  0  0  0  0  0  0  0  0  0  0
   -5.1410   -0.2540  -20.3550 C   0  0  0  0  0  0  0  0  0  0  0  0
   -5.0550   -0.6680  -22.4860 H   0  0  0  0  0  0  0  0  0  0  0  0
   -3.3520    1.0260  -22.9680 H   0  0  0  0  0  0  0  0  0  0  0  0
   -2.4230    2.4390  -21.1480 H   0  0  0  0  0  0  0  0  0  0  0  0
   -3.2230    2.1400  -18.8260 H   0  0  0  0  0  0  0  0  0  0  0  0
   -4.6890    0.9890  -17.1970 H   0  0  0  0  0  0  0  0  0  0  0  0
   -7.2700   -1.9880  -18.3640 H   0  0  0  0  0  0  0  0  0  0  0  0
   -6.0610   -2.5230  -21.7220 H   0  0  0  0  0  0  0  0  0  0  0  0
   -7.3180   -2.9120  -20.5240 H   0  0  0  0  0  0  0  0  0  0  0  0
   -7.4680   -2.1090  -24.1170 C   0  0  0  0  0  0  0  0  0  0  0  0
   -6.4890   -1.7160  -25.2140 C   0  0  0  0  0  0  0  0  0  0  0  0
   -6.4350   -2.5150  -25.9600 H   0  0  0  0  0  0  0  0  0  0  0  0
   -5.4870   -1.6280  -24.7780 H   0  0  0  0  0  0  0  0  0  0  0  0
   -7.1330   -3.0040  -23.5960 H   0  0  0  0  0  0  0  0  0  0  0  0
   -8.4360   -2.3670  -24.5820 H   0  0  0  0  0  0  0  0  0  0  0  0
   -8.0680    0.9670  -22.8970 H   0  0  0  0  0  0  0  0  0  0  0  0
   -9.0610    0.1970  -24.1250 H   0  0  0  0  0  0  0  0  0  0  0  0
   -6.0850    0.8950  -24.3260 H   0  0  0  0  0  0  0  0  0  0  0  0
   -7.3930    1.6140  -25.2470 H   0  0  0  0  0  0  0  0  0  0  0  0
   -7.8440   -0.5270  -26.3670 H   0  0  0  0  0  0  0  0  0  0  0  0
   -6.1080    1.0820  -27.2380 H   0  0  0  0  0  0  0  0  0  0  0  0
   -4.8690    0.1160  -26.4720 H   0  0  0  0  0  0  0  0  0  0  0  0
   -6.8120   -0.9740  -28.5920 H   0  0  0  0  0  0  0  0  0  0  0  0
   -5.1750   -0.4110  -28.9450 H   0  0  0  0  0  0  0  0  0  0  0  0
   -5.4230   -1.8360  -27.9310 H   0  0  0  0  0  0  0  0  0  0  0  0
  1  2  1  0  0  0  0
  1 41  1  0  0  0  0
  1 42  1  0  0  0  0
  1 43  1  0  0  0  0
  2  3  1  0  0  0  0
  2 39  1  0  0  0  0
  2 40  1  0  0  0  0
  3  4  1  0  0  0  0
  3 29  1  0  0  0  0
  3 38  1  0  0  0  0
  4  5  1  0  0  0  0
  4 36  1  0  0  0  0
  4 37  1  0  0  0  0
  5  6  1  0  0  0  0
  5 34  1  0  0  0  0
  5 35  1  0  0  0  0
  6  7  1  0  0  0  0
  6 28  1  0  0  0  0
  7  8  2  0  0  0  0
  7  9  1  0  0  0  0
  9 10  1  0  0  0  0
  9 26  1  0  0  0  0
  9 27  1  0  0  0  0
 10 11  2  0  0  0  0
 10 19  1  0  0  0  0
 11 12  1  0  0  0  0
 11 25  1  0  0  0  0
 12 13  2  0  0  0  0
 13 14  1  0  0  0  0
 13 24  1  0  0  0  0
 14 15  2  0  0  0  0
 14 19  1  0  0  0  0
 15 16  1  0  0  0  0
 15 23  1  0  0  0  0
 16 17  2  0  0  0  0
 16 22  1  0  0  0  0
 17 18  1  0  0  0  0
 17 21  1  0  0  0  0
 18 19  2  0  0  0  0
 18 20  1  0  0  0  0
 28 29  1  0  0  0  0
 28 32  1  0  0  0  0
 28 33  1  0  0  0  0
 29 30  1  0  0  0  0
 29 31  1  0  0  0  0
M  END
>  <MODEL>
       6

$$$$
best_conformers_6.pdb
 OpenBabel01292518153D

 43 45  0  0  0  0  0  0  0  0999 V2000
   -6.1080   -1.7050  -27.8170 C   0  0  0  0  0  0  0  0  0  0  0  0
   -6.6390   -0.7850  -26.7200 C   0  0  0  0  0  0  0  0  0  0  0  0
   -7.9930   -1.2200  -26.1440 C   0  0  0  0  0  0  0  0  0  0  0  0
   -8.6170   -0.1450  -25.2510 C   0  0  0  0  0  0  0  0  0  0  0  0
   -7.8850   -0.0000  -23.9250 C   0  0  0  0  0  0  0  0  0  0  0  0
   -7.7520   -1.2810  -23.2360 N   0  0  0  0  0  0  0  0  0  0  0  0
   -7.8320   -1.2850  -21.8480 C   0  0  0  0  0  0  0  0  0  0  0  0
   -8.6780   -0.6450  -21.2540 O   0  0  0  0  0  0  0  0  0  0  0  0
   -6.7890   -2.0910  -21.0410 C   0  0  0  0  0  0  0  0  0  0  0  0
   -6.1300   -1.2150  -19.9950 C   0  0  0  0  0  0  0  0  0  0  0  0
   -6.5110   -1.2760  -18.6800 C   0  0  0  0  0  0  0  0  0  0  0  0
   -6.0170   -0.5060  -17.6710 N   0  0  0  0  0  0  0  0  0  0  0  0
   -5.0950    0.3690  -17.9980 C   0  0  0  0  0  0  0  0  0  0  0  0
   -4.6050    0.5530  -19.3210 C   0  0  0  0  0  0  0  0  0  0  0  0
   -3.6140    1.5220  -19.6280 C   0  0  0  0  0  0  0  0  0  0  0  0
   -3.1710    1.6860  -20.9130 C   0  0  0  0  0  0  0  0  0  0  0  0
   -3.7040    0.8850  -21.9490 C   0  0  0  0  0  0  0  0  0  0  0  0
   -4.6630   -0.0610  -21.6800 C   0  0  0  0  0  0  0  0  0  0  0  0
   -5.1380   -0.2550  -20.3550 C   0  0  0  0  0  0  0  0  0  0  0  0
   -5.0610   -0.6630  -22.4930 H   0  0  0  0  0  0  0  0  0  0  0  0
   -3.3500    1.0250  -22.9660 H   0  0  0  0  0  0  0  0  0  0  0  0
   -2.4170    2.4340  -21.1480 H   0  0  0  0  0  0  0  0  0  0  0  0
   -3.2200    2.1390  -18.8240 H   0  0  0  0  0  0  0  0  0  0  0  0
   -4.6890    0.9900  -17.1970 H   0  0  0  0  0  0  0  0  0  0  0  0
   -7.2710   -1.9890  -18.3650 H   0  0  0  0  0  0  0  0  0  0  0  0
   -6.0330   -2.5580  -21.6850 H   0  0  0  0  0  0  0  0  0  0  0  0
   -7.3320   -2.8950  -20.5290 H   0  0  0  0  0  0  0  0  0  0  0  0
   -7.2060   -2.3800  -24.0160 C   0  0  0  0  0  0  0  0  0  0  0  0
   -7.9430   -2.5250  -25.3500 C   0  0  0  0  0  0  0  0  0  0  0  0
   -8.9650   -2.8630  -25.1520 H   0  0  0  0  0  0  0  0  0  0  0  0
   -7.4710   -3.3160  -25.9400 H   0  0  0  0  0  0  0  0  0  0  0  0
   -7.3360   -3.2970  -23.4410 H   0  0  0  0  0  0  0  0  0  0  0  0
   -6.1240   -2.2670  -24.1960 H   0  0  0  0  0  0  0  0  0  0  0  0
   -6.8940    0.4580  -24.0930 H   0  0  0  0  0  0  0  0  0  0  0  0
   -8.4280    0.6670  -23.2560 H   0  0  0  0  0  0  0  0  0  0  0  0
   -9.6640   -0.3970  -25.0530 H   0  0  0  0  0  0  0  0  0  0  0  0
   -8.6250    0.8170  -25.7760 H   0  0  0  0  0  0  0  0  0  0  0  0
   -8.6590   -1.3660  -27.0060 H   0  0  0  0  0  0  0  0  0  0  0  0
   -5.8910   -0.7040  -25.9250 H   0  0  0  0  0  0  0  0  0  0  0  0
   -6.7470    0.2270  -27.1270 H   0  0  0  0  0  0  0  0  0  0  0  0
   -5.2210   -1.2770  -28.2960 H   0  0  0  0  0  0  0  0  0  0  0  0
   -5.8290   -2.6890  -27.4270 H   0  0  0  0  0  0  0  0  0  0  0  0
   -6.8600   -1.8620  -28.5980 H   0  0  0  0  0  0  0  0  0  0  0  0
  1  2  1  0  0  0  0
  1 41  1  0  0  0  0
  1 42  1  0  0  0  0
  1 43  1  0  0  0  0
  2  3  1  0  0  0  0
  2 39  1  0  0  0  0
  2 40  1  0  0  0  0
  3  4  1  0  0  0  0
  3 29  1  0  0  0  0
  3 38  1  0  0  0  0
  4  5  1  0  0  0  0
  4 36  1  0  0  0  0
  4 37  1  0  0  0  0
  5  6  1  0  0  0  0
  5 34  1  0  0  0  0
  5 35  1  0  0  0  0
  6  7  1  0  0  0  0
  6 28  1  0  0  0  0
  7  8  2  0  0  0  0
  7  9  1  0  0  0  0
  9 10  1  0  0  0  0
  9 26  1  0  0  0  0
  9 27  1  0  0  0  0
 10 11  2  0  0  0  0
 10 19  1  0  0  0  0
 11 12  1  0  0  0  0
 11 25  1  0  0  0  0
 12 13  2  0  0  0  0
 13 14  1  0  0  0  0
 13 24  1  0  0  0  0
 14 15  2  0  0  0  0
 14 19  1  0  0  0  0
 15 16  1  0  0  0  0
 15 23  1  0  0  0  0
 16 17  2  0  0  0  0
 16 22  1  0  0  0  0
 17 18  1  0  0  0  0
 17 21  1  0  0  0  0
 18 19  2  0  0  0  0
 18 20  1  0  0  0  0
 28 29  1  0  0  0  0
 28 32  1  0  0  0  0
 28 33  1  0  0  0  0
 29 30  1  0  0  0  0
 29 31  1  0  0  0  0
M  END
>  <MODEL>
       7

$$$$
best_conformers_6.pdb
 OpenBabel01292518153D

 43 45  0  0  0  0  0  0  0  0999 V2000
   -6.2060   -0.3890  -28.1290 C   0  0  0  0  0  0  0  0  0  0  0  0
   -6.3200   -1.5140  -27.1080 C   0  0  0  0  0  0  0  0  0  0  0  0
   -7.5900   -1.4380  -26.2490 C   0  0  0  0  0  0  0  0  0  0  0  0
   -7.7810   -2.6840  -25.3710 C   0  0  0  0  0  0  0  0  0  0  0  0
   -7.1830   -2.5460  -23.9730 C   0  0  0  0  0  0  0  0  0  0  0  0
   -7.7430   -1.4000  -23.2640 N   0  0  0  0  0  0  0  0  0  0  0  0
   -7.8040   -1.3050  -21.8940 C   0  0  0  0  0  0  0  0  0  0  0  0
   -8.6190   -0.5890  -21.3340 O   0  0  0  0  0  0  0  0  0  0  0  0
   -6.7810   -2.0920  -21.0460 C   0  0  0  0  0  0  0  0  0  0  0  0
   -6.1330   -1.2130  -19.9970 C   0  0  0  0  0  0  0  0  0  0  0  0
   -6.5120   -1.2740  -18.6820 C   0  0  0  0  0  0  0  0  0  0  0  0
   -6.0170   -0.5060  -17.6710 N   0  0  0  0  0  0  0  0  0  0  0  0
   -5.0950    0.3680  -17.9980 C   0  0  0  0  0  0  0  0  0  0  0  0
   -4.6040    0.5540  -19.3200 C   0  0  0  0  0  0  0  0  0  0  0  0
   -3.6120    1.5210  -19.6290 C   0  0  0  0  0  0  0  0  0  0  0  0
   -3.1690    1.6840  -20.9130 C   0  0  0  0  0  0  0  0  0  0  0  0
   -3.7050    0.8840  -21.9500 C   0  0  0  0  0  0  0  0  0  0  0  0
   -4.6630   -0.0600  -21.6780 C   0  0  0  0  0  0  0  0  0  0  0  0
   -5.1390   -0.2540  -20.3550 C   0  0  0  0  0  0  0  0  0  0  0  0
   -5.0670   -0.6600  -22.4910 H   0  0  0  0  0  0  0  0  0  0  0  0
   -3.3520    1.0240  -22.9670 H   0  0  0  0  0  0  0  0  0  0  0  0
   -2.4130    2.4300  -21.1510 H   0  0  0  0  0  0  0  0  0  0  0  0
   -3.2140    2.1390  -18.8250 H   0  0  0  0  0  0  0  0  0  0  0  0
   -4.6870    0.9910  -17.1980 H   0  0  0  0  0  0  0  0  0  0  0  0
   -7.2710   -1.9890  -18.3680 H   0  0  0  0  0  0  0  0  0  0  0  0
   -7.3360   -2.8860  -20.5300 H   0  0  0  0  0  0  0  0  0  0  0  0
   -6.0120   -2.5820  -21.6570 H   0  0  0  0  0  0  0  0  0  0  0  0
   -8.3740   -0.3540  -24.0710 C   0  0  0  0  0  0  0  0  0  0  0  0
   -7.6290   -0.1650  -25.3880 C   0  0  0  0  0  0  0  0  0  0  0  0
   -8.0850    0.6550  -25.9520 H   0  0  0  0  0  0  0  0  0  0  0  0
   -6.6120    0.1730  -25.1620 H   0  0  0  0  0  0  0  0  0  0  0  0
   -9.4300   -0.5830  -24.2600 H   0  0  0  0  0  0  0  0  0  0  0  0
   -8.3660    0.5710  -23.4930 H   0  0  0  0  0  0  0  0  0  0  0  0
   -6.0880   -2.4780  -24.0380 H   0  0  0  0  0  0  0  0  0  0  0  0
   -7.4050   -3.4560  -23.4080 H   0  0  0  0  0  0  0  0  0  0  0  0
   -7.3370   -3.5520  -25.8660 H   0  0  0  0  0  0  0  0  0  0  0  0
   -8.8470   -2.9230  -25.2850 H   0  0  0  0  0  0  0  0  0  0  0  0
   -8.4400   -1.4090  -26.9440 H   0  0  0  0  0  0  0  0  0  0  0  0
   -6.3000   -2.4740  -27.6380 H   0  0  0  0  0  0  0  0  0  0  0  0
   -5.4390   -1.5160  -26.4570 H   0  0  0  0  0  0  0  0  0  0  0  0
   -6.1060    0.5890  -27.6500 H   0  0  0  0  0  0  0  0  0  0  0  0
   -7.0970   -0.3510  -28.7650 H   0  0  0  0  0  0  0  0  0  0  0  0
   -5.3410   -0.5270  -28.7840 H   0  0  0  0  0  0  0  0  0  0  0  0
  1  2  1  0  0  0  0
  1 41  1  0  0  0  0
  1 42  1  0  0  0  0
  1 43  1  0  0  0  0
  2  3  1  0  0  0  0
  2 39  1  0  0  0  0
  2 40  1  0  0  0  0
  3  4  1  0  0  0  0
  3 29  1  0  0  0  0
  3 38  1  0  0  0  0
  4  5  1  0  0  0  0
  4 36  1  0  0  0  0
  4 37  1  0  0  0  0
  5  6  1  0  0  0  0
  5 34  1  0  0  0  0
  5 35  1  0  0  0  0
  6  7  1  0  0  0  0
  6 28  1  0  0  0  0
  7  8  2  0  0  0  0
  7  9  1  0  0  0  0
  9 10  1  0  0  0  0
  9 26  1  0  0  0  0
  9 27  1  0  0  0  0
 10 11  2  0  0  0  0
 10 19  1  0  0  0  0
 11 12  1  0  0  0  0
 11 25  1  0  0  0  0
 12 13  2  0  0  0  0
 13 14  1  0  0  0  0
 13 24  1  0  0  0  0
 14 15  2  0  0  0  0
 14 19  1  0  0  0  0
 15 16  1  0  0  0  0
 15 23  1  0  0  0  0
 16 17  2  0  0  0  0
 16 22  1  0  0  0  0
 17 18  1  0  0  0  0
 17 21  1  0  0  0  0
 18 19  2  0  0  0  0
 18 20  1  0  0  0  0
 28 29  1  0  0  0  0
 28 32  1  0  0  0  0
 28 33  1  0  0  0  0
 29 30  1  0  0  0  0
 29 31  1  0  0  0  0
M  END
>  <MODEL>
       8

$$$$
best_conformers_6.pdb
 OpenBabel01292518153D

 43 45  0  0  0  0  0  0  0  0999 V2000
   -8.9460   -8.0660  -24.0680 C   0  0  0  0  0  0  0  0  0  0  0  0
   -8.7880   -6.5620  -24.1900 C   0  0  0  0  0  0  0  0  0  0  0  0
   -7.3060   -6.1600  -24.3130 C   0  0  0  0  0  0  0  0  0  0  0  0
   -7.1540   -4.6790  -24.6810 C   0  0  0  0  0  0  0  0  0  0  0  0
   -7.1740   -3.7410  -23.4760 C   0  0  0  0  0  0  0  0  0  0  0  0
   -6.1730   -4.1140  -22.4780 N   0  0  0  0  0  0  0  0  0  0  0  0
   -5.8120   -3.3090  -21.4220 C   0  0  0  0  0  0  0  0  0  0  0  0
   -4.8050   -3.5250  -20.7660 O   0  0  0  0  0  0  0  0  0  0  0  0
   -6.7520   -2.1360  -21.0330 C   0  0  0  0  0  0  0  0  0  0  0  0
   -6.1390   -1.2130  -20.0030 C   0  0  0  0  0  0  0  0  0  0  0  0
   -6.5060   -1.2820  -18.6850 C   0  0  0  0  0  0  0  0  0  0  0  0
   -6.0140   -0.5130  -17.6740 N   0  0  0  0  0  0  0  0  0  0  0  0
   -5.0970    0.3680  -18.0000 C   0  0  0  0  0  0  0  0  0  0  0  0
   -4.6040    0.5520  -19.3210 C   0  0  0  0  0  0  0  0  0  0  0  0
   -3.6070    1.5150  -19.6280 C   0  0  0  0  0  0  0  0  0  0  0  0
   -3.1510    1.6660  -20.9090 C   0  0  0  0  0  0  0  0  0  0  0  0
   -3.6740    0.8570  -21.9430 C   0  0  0  0  0  0  0  0  0  0  0  0
   -4.6400   -0.0810  -21.6730 C   0  0  0  0  0  0  0  0  0  0  0  0
   -5.1360   -0.2610  -20.3550 C   0  0  0  0  0  0  0  0  0  0  0  0
   -5.0290   -0.6960  -22.4780 H   0  0  0  0  0  0  0  0  0  0  0  0
   -3.3100    0.9840  -22.9580 H   0  0  0  0  0  0  0  0  0  0  0  0
   -2.3890    2.4070  -21.1450 H   0  0  0  0  0  0  0  0  0  0  0  0
   -3.2110    2.1360  -18.8250 H   0  0  0  0  0  0  0  0  0  0  0  0
   -4.6880    0.9910  -17.2000 H   0  0  0  0  0  0  0  0  0  0  0  0
   -7.2620   -1.9990  -18.3680 H   0  0  0  0  0  0  0  0  0  0  0  0
   -7.0700   -1.5540  -21.9080 H   0  0  0  0  0  0  0  0  0  0  0  0
   -7.6710   -2.5670  -20.6060 H   0  0  0  0  0  0  0  0  0  0  0  0
   -5.5030   -5.4060  -22.6540 C   0  0  0  0  0  0  0  0  0  0  0  0
   -6.5150   -6.4860  -23.0280 C   0  0  0  0  0  0  0  0  0  0  0  0
   -7.2020   -6.6060  -22.1830 H   0  0  0  0  0  0  0  0  0  0  0  0
   -6.0040   -7.4500  -23.1310 H   0  0  0  0  0  0  0  0  0  0  0  0
   -5.0010   -5.6610  -21.7220 H   0  0  0  0  0  0  0  0  0  0  0  0
   -4.7180   -5.3360  -23.4190 H   0  0  0  0  0  0  0  0  0  0  0  0
   -6.9770   -2.7280  -23.8420 H   0  0  0  0  0  0  0  0  0  0  0  0
   -8.1780   -3.7260  -23.0330 H   0  0  0  0  0  0  0  0  0  0  0  0
   -7.9570   -4.3940  -25.3690 H   0  0  0  0  0  0  0  0  0  0  0  0
   -6.2290   -4.5260  -25.2480 H   0  0  0  0  0  0  0  0  0  0  0  0
   -6.8680   -6.7380  -25.1410 H   0  0  0  0  0  0  0  0  0  0  0  0
   -9.2460   -6.0380  -23.3510 H   0  0  0  0  0  0  0  0  0  0  0  0
   -9.3150   -6.2550  -25.1020 H   0  0  0  0  0  0  0  0  0  0  0  0
   -8.4770   -8.4820  -23.1700 H   0  0  0  0  0  0  0  0  0  0  0  0
   -9.9650   -8.4650  -24.0990 H   0  0  0  0  0  0  0  0  0  0  0  0
   -8.4540   -8.4080  -24.9760 H   0  0  0  0  0  0  0  0  0  0  0  0
  1  2  1  0  0  0  0
  1 41  1  0  0  0  0
  1 42  1  0  0  0  0
  1 43  1  0  0  0  0
  2  3  1  0  0  0  0
  2 39  1  0  0  0  0
  2 40  1  0  0  0  0
  3  4  1  0  0  0  0
  3 29  1  0  0  0  0
  3 38  1  0  0  0  0
  4  5  1  0  0  0  0
  4 36  1  0  0  0  0
  4 37  1  0  0  0  0
  5  6  1  0  0  0  0
  5 34  1  0  0  0  0
  5 35  1  0  0  0  0
  6  7  1  0  0  0  0
  6 28  1  0  0  0  0
  7  8  2  0  0  0  0
  7  9  1  0  0  0  0
  9 10  1  0  0  0  0
  9 26  1  0  0  0  0
  9 27  1  0  0  0  0
 10 11  2  0  0  0  0
 10 19  1  0  0  0  0
 11 12  1  0  0  0  0
 11 25  1  0  0  0  0
 12 13  2  0  0  0  0
 13 14  1  0  0  0  0
 13 24  1  0  0  0  0
 14 15  2  0  0  0  0
 14 19  1  0  0  0  0
 15 16  1  0  0  0  0
 15 23  1  0  0  0  0
 16 17  2  0  0  0  0
 16 22  1  0  0  0  0
 17 18  1  0  0  0  0
 17 21  1  0  0  0  0
 18 19  2  0  0  0  0
 18 20  1  0  0  0  0
 28 29  1  0  0  0  0
 28 32  1  0  0  0  0
 28 33  1  0  0  0  0
 29 30  1  0  0  0  0
 29 31  1  0  0  0  0
M  END
>  <MODEL>
       9

$$$$
best_conformers_6.pdb
 OpenBabel01292518153D

 43 45  0  0  0  0  0  0  0  0999 V2000
   -9.0140   -5.2620  -27.1090 C   0  0  0  0  0  0  0  0  0  0  0  0
   -9.4440   -4.6940  -25.7630 C   0  0  0  0  0  0  0  0  0  0  0  0
   -9.1920   -3.1870  -25.6050 C   0  0  0  0  0  0  0  0  0  0  0  0
   -7.7150   -2.8320  -25.3760 C   0  0  0  0  0  0  0  0  0  0  0  0
   -7.3080   -2.7640  -23.9040 C   0  0  0  0  0  0  0  0  0  0  0  0
   -8.1540   -1.8490  -23.1430 N   0  0  0  0  0  0  0  0  0  0  0  0
   -7.8300   -1.3550  -21.9020 C   0  0  0  0  0  0  0  0  0  0  0  0
   -8.3940   -0.3760  -21.4380 O   0  0  0  0  0  0  0  0  0  0  0  0
   -6.7760   -2.0990  -21.0460 C   0  0  0  0  0  0  0  0  0  0  0  0
   -6.1370   -1.2110  -20.0030 C   0  0  0  0  0  0  0  0  0  0  0  0
   -6.5130   -1.2740  -18.6860 C   0  0  0  0  0  0  0  0  0  0  0  0
   -6.0180   -0.5080  -17.6730 N   0  0  0  0  0  0  0  0  0  0  0  0
   -5.0960    0.3680  -17.9980 C   0  0  0  0  0  0  0  0  0  0  0  0
   -4.6070    0.5550  -19.3210 C   0  0  0  0  0  0  0  0  0  0  0  0
   -3.6130    1.5200  -19.6290 C   0  0  0  0  0  0  0  0  0  0  0  0
   -3.1690    1.6840  -20.9130 C   0  0  0  0  0  0  0  0  0  0  0  0
   -3.7050    0.8850  -21.9490 C   0  0  0  0  0  0  0  0  0  0  0  0
   -4.6640   -0.0570  -21.6790 C   0  0  0  0  0  0  0  0  0  0  0  0
   -5.1430   -0.2520  -20.3560 C   0  0  0  0  0  0  0  0  0  0  0  0
   -5.0680   -0.6560  -22.4910 H   0  0  0  0  0  0  0  0  0  0  0  0
   -3.3530    1.0250  -22.9670 H   0  0  0  0  0  0  0  0  0  0  0  0
   -2.4120    2.4290  -21.1500 H   0  0  0  0  0  0  0  0  0  0  0  0
   -3.2140    2.1380  -18.8250 H   0  0  0  0  0  0  0  0  0  0  0  0
   -4.6870    0.9910  -17.1980 H   0  0  0  0  0  0  0  0  0  0  0  0
   -7.2710   -1.9890  -18.3700 H   0  0  0  0  0  0  0  0  0  0  0  0
   -6.0030   -2.5910  -21.6490 H   0  0  0  0  0  0  0  0  0  0  0  0
   -7.3090   -2.9060  -20.5230 H   0  0  0  0  0  0  0  0  0  0  0  0
   -9.4050   -1.4200  -23.7700 C   0  0  0  0  0  0  0  0  0  0  0  0
  -10.0640   -2.5910  -24.4870 C   0  0  0  0  0  0  0  0  0  0  0  0
  -11.0270   -2.2810  -24.9010 H   0  0  0  0  0  0  0  0  0  0  0  0
  -10.3000   -3.3560  -23.7390 H   0  0  0  0  0  0  0  0  0  0  0  0
   -9.2310   -0.5920  -24.4690 H   0  0  0  0  0  0  0  0  0  0  0  0
  -10.0610   -1.0290  -22.9930 H   0  0  0  0  0  0  0  0  0  0  0  0
   -7.3280   -3.7670  -23.4630 H   0  0  0  0  0  0  0  0  0  0  0  0
   -6.2660   -2.4280  -23.8600 H   0  0  0  0  0  0  0  0  0  0  0  0
   -7.0760   -3.5610  -25.8820 H   0  0  0  0  0  0  0  0  0  0  0  0
   -7.4810   -1.8750  -25.8540 H   0  0  0  0  0  0  0  0  0  0  0  0
   -9.4920   -2.7140  -26.5480 H   0  0  0  0  0  0  0  0  0  0  0  0
  -10.5120   -4.8970  -25.6270 H   0  0  0  0  0  0  0  0  0  0  0  0
   -8.9350   -5.2290  -24.9520 H   0  0  0  0  0  0  0  0  0  0  0  0
   -7.9360   -5.1740  -27.2720 H   0  0  0  0  0  0  0  0  0  0  0  0
   -9.5110   -4.7320  -27.9280 H   0  0  0  0  0  0  0  0  0  0  0  0
   -9.2760   -6.3210  -27.1970 H   0  0  0  0  0  0  0  0  0  0  0  0
  1  2  1  0  0  0  0
  1 41  1  0  0  0  0
  1 42  1  0  0  0  0
  1 43  1  0  0  0  0
  2  3  1  0  0  0  0
  2 39  1  0  0  0  0
  2 40  1  0  0  0  0
  3  4  1  0  0  0  0
  3 29  1  0  0  0  0
  3 38  1  0  0  0  0
  4  5  1  0  0  0  0
  4 36  1  0  0  0  0
  4 37  1  0  0  0  0
  5  6  1  0  0  0  0
  5 34  1  0  0  0  0
  5 35  1  0  0  0  0
  6  7  1  0  0  0  0
  6 28  1  0  0  0  0
  7  8  2  0  0  0  0
  7  9  1  0  0  0  0
  9 10  1  0  0  0  0
  9 26  1  0  0  0  0
  9 27  1  0  0  0  0
 10 11  2  0  0  0  0
 10 19  1  0  0  0  0
 11 12  1  0  0  0  0
 11 25  1  0  0  0  0
 12 13  2  0  0  0  0
 13 14  1  0  0  0  0
 13 24  1  0  0  0  0
 14 15  2  0  0  0  0
 14 19  1  0  0  0  0
 15 16  1  0  0  0  0
 15 23  1  0  0  0  0
 16 17  2  0  0  0  0
 16 22  1  0  0  0  0
 17 18  1  0  0  0  0
 17 21  1  0  0  0  0
 18 19  2  0  0  0  0
 18 20  1  0  0  0  0
 28 29  1  0  0  0  0
 28 32  1  0  0  0  0
 28 33  1  0  0  0  0
 29 30  1  0  0  0  0
 29 31  1  0  0  0  0
M  END
>  <MODEL>
      10

$$$$
best_conformers_6.pdb
 OpenBabel01292518153D

 43 45  0  0  0  0  0  0  0  0999 V2000
   -4.5020    0.5240  -26.5010 C   0  0  0  0  0  0  0  0  0  0  0  0
   -5.9460    0.2520  -26.9160 C   0  0  0  0  0  0  0  0  0  0  0  0
   -6.8880   -0.2180  -25.7950 C   0  0  0  0  0  0  0  0  0  0  0  0
   -7.0600    0.8080  -24.6780 C   0  0  0  0  0  0  0  0  0  0  0  0
   -8.0540    0.3230  -23.6250 C   0  0  0  0  0  0  0  0  0  0  0  0
   -7.6360   -0.9760  -23.1120 N   0  0  0  0  0  0  0  0  0  0  0  0
   -7.8770   -1.2630  -21.7650 C   0  0  0  0  0  0  0  0  0  0  0  0
   -8.8220   -0.8060  -21.1600 O   0  0  0  0  0  0  0  0  0  0  0  0
   -6.8050   -2.0910  -21.0350 C   0  0  0  0  0  0  0  0  0  0  0  0
   -6.1310   -1.2160  -19.9960 C   0  0  0  0  0  0  0  0  0  0  0  0
   -6.5110   -1.2760  -18.6810 C   0  0  0  0  0  0  0  0  0  0  0  0
   -6.0160   -0.5060  -17.6730 N   0  0  0  0  0  0  0  0  0  0  0  0
   -5.0940    0.3690  -18.0000 C   0  0  0  0  0  0  0  0  0  0  0  0
   -4.6070    0.5540  -19.3220 C   0  0  0  0  0  0  0  0  0  0  0  0
   -3.6180    1.5240  -19.6300 C   0  0  0  0  0  0  0  0  0  0  0  0
   -3.1750    1.6910  -20.9150 C   0  0  0  0  0  0  0  0  0  0  0  0
   -3.7070    0.8880  -21.9490 C   0  0  0  0  0  0  0  0  0  0  0  0
   -4.6630   -0.0610  -21.6790 C   0  0  0  0  0  0  0  0  0  0  0  0
   -5.1430   -0.2540  -20.3570 C   0  0  0  0  0  0  0  0  0  0  0  0
   -5.0540   -0.6690  -22.4880 H   0  0  0  0  0  0  0  0  0  0  0  0
   -3.3470    1.0290  -22.9650 H   0  0  0  0  0  0  0  0  0  0  0  0
   -2.4230    2.4420  -21.1480 H   0  0  0  0  0  0  0  0  0  0  0  0
   -3.2240    2.1420  -18.8260 H   0  0  0  0  0  0  0  0  0  0  0  0
   -4.6890    0.9890  -17.1970 H   0  0  0  0  0  0  0  0  0  0  0  0
   -7.2700   -1.9880  -18.3630 H   0  0  0  0  0  0  0  0  0  0  0  0
   -6.0690   -2.5100  -21.7340 H   0  0  0  0  0  0  0  0  0  0  0  0
   -7.3110   -2.9170  -20.5230 H   0  0  0  0  0  0  0  0  0  0  0  0
   -7.4650   -2.0090  -24.1270 C   0  0  0  0  0  0  0  0  0  0  0  0
   -6.4780   -1.5600  -25.1950 C   0  0  0  0  0  0  0  0  0  0  0  0
   -5.4850   -1.4850  -24.7390 H   0  0  0  0  0  0  0  0  0  0  0  0
   -6.4020   -2.3200  -25.9800 H   0  0  0  0  0  0  0  0  0  0  0  0
   -8.4260   -2.2550  -24.6130 H   0  0  0  0  0  0  0  0  0  0  0  0
   -7.1280   -2.9210  -23.6380 H   0  0  0  0  0  0  0  0  0  0  0  0
   -9.0700    0.2990  -24.0490 H   0  0  0  0  0  0  0  0  0  0  0  0
   -8.0850    1.0120  -22.7810 H   0  0  0  0  0  0  0  0  0  0  0  0
   -7.3860    1.7680  -25.0920 H   0  0  0  0  0  0  0  0  0  0  0  0
   -6.1000    1.0030  -24.1850 H   0  0  0  0  0  0  0  0  0  0  0  0
   -7.8770   -0.3570  -26.2550 H   0  0  0  0  0  0  0  0  0  0  0  0
   -6.3610    1.1620  -27.3670 H   0  0  0  0  0  0  0  0  0  0  0  0
   -5.9480   -0.5020  -27.7130 H   0  0  0  0  0  0  0  0  0  0  0  0
   -4.0240   -0.3670  -26.0830 H   0  0  0  0  0  0  0  0  0  0  0  0
   -4.4380    1.3130  -25.7450 H   0  0  0  0  0  0  0  0  0  0  0  0
   -3.9030    0.8460  -27.3600 H   0  0  0  0  0  0  0  0  0  0  0  0
  1  2  1  0  0  0  0
  1 41  1  0  0  0  0
  1 42  1  0  0  0  0
  1 43  1  0  0  0  0
  2  3  1  0  0  0  0
  2 39  1  0  0  0  0
  2 40  1  0  0  0  0
  3  4  1  0  0  0  0
  3 29  1  0  0  0  0
  3 38  1  0  0  0  0
  4  5  1  0  0  0  0
  4 36  1  0  0  0  0
  4 37  1  0  0  0  0
  5  6  1  0  0  0  0
  5 34  1  0  0  0  0
  5 35  1  0  0  0  0
  6  7  1  0  0  0  0
  6 28  1  0  0  0  0
  7  8  2  0  0  0  0
  7  9  1  0  0  0  0
  9 10  1  0  0  0  0
  9 26  1  0  0  0  0
  9 27  1  0  0  0  0
 10 11  2  0  0  0  0
 10 19  1  0  0  0  0
 11 12  1  0  0  0  0
 11 25  1  0  0  0  0
 12 13  2  0  0  0  0
 13 14  1  0  0  0  0
 13 24  1  0  0  0  0
 14 15  2  0  0  0  0
 14 19  1  0  0  0  0
 15 16  1  0  0  0  0
 15 23  1  0  0  0  0
 16 17  2  0  0  0  0
 16 22  1  0  0  0  0
 17 18  1  0  0  0  0
 17 21  1  0  0  0  0
 18 19  2  0  0  0  0
 18 20  1  0  0  0  0
 28 29  1  0  0  0  0
 28 32  1  0  0  0  0
 28 33  1  0  0  0  0
 29 30  1  0  0  0  0
 29 31  1  0  0  0  0
M  END
>  <MODEL>
      11

$$$$
best_conformers_6.pdb
 OpenBabel01292518153D

 43 45  0  0  0  0  0  0  0  0999 V2000
   -8.0020   -1.3170  -28.0340 C   0  0  0  0  0  0  0  0  0  0  0  0
   -8.1790   -0.4660  -26.7800 C   0  0  0  0  0  0  0  0  0  0  0  0
   -6.9260   -0.3830  -25.8970 C   0  0  0  0  0  0  0  0  0  0  0  0
   -6.5350   -1.7090  -25.2400 C   0  0  0  0  0  0  0  0  0  0  0  0
   -7.4860   -2.1050  -24.1190 C   0  0  0  0  0  0  0  0  0  0  0  0
   -7.6100   -1.0260  -23.1450 N   0  0  0  0  0  0  0  0  0  0  0  0
   -7.8560   -1.2650  -21.7890 C   0  0  0  0  0  0  0  0  0  0  0  0
   -8.7910   -0.7710  -21.1970 O   0  0  0  0  0  0  0  0  0  0  0  0
   -6.8010   -2.0930  -21.0350 C   0  0  0  0  0  0  0  0  0  0  0  0
   -6.1310   -1.2170  -19.9950 C   0  0  0  0  0  0  0  0  0  0  0  0
   -6.5110   -1.2760  -18.6800 C   0  0  0  0  0  0  0  0  0  0  0  0
   -6.0170   -0.5060  -17.6720 N   0  0  0  0  0  0  0  0  0  0  0  0
   -5.0950    0.3690  -17.9990 C   0  0  0  0  0  0  0  0  0  0  0  0
   -4.6070    0.5540  -19.3210 C   0  0  0  0  0  0  0  0  0  0  0  0
   -3.6170    1.5230  -19.6290 C   0  0  0  0  0  0  0  0  0  0  0  0
   -3.1740    1.6890  -20.9140 C   0  0  0  0  0  0  0  0  0  0  0  0
   -3.7060    0.8870  -21.9500 C   0  0  0  0  0  0  0  0  0  0  0  0
   -4.6620   -0.0610  -21.6770 C   0  0  0  0  0  0  0  0  0  0  0  0
   -5.1410   -0.2540  -20.3550 C   0  0  0  0  0  0  0  0  0  0  0  0
   -5.0540   -0.6680  -22.4850 H   0  0  0  0  0  0  0  0  0  0  0  0
   -3.3530    1.0270  -22.9680 H   0  0  0  0  0  0  0  0  0  0  0  0
   -2.4220    2.4390  -21.1480 H   0  0  0  0  0  0  0  0  0  0  0  0
   -3.2230    2.1410  -18.8260 H   0  0  0  0  0  0  0  0  0  0  0  0
   -4.6890    0.9890  -17.1970 H   0  0  0  0  0  0  0  0  0  0  0  0
   -7.2700   -1.9880  -18.3640 H   0  0  0  0  0  0  0  0  0  0  0  0
   -6.0600   -2.5230  -21.7220 H   0  0  0  0  0  0  0  0  0  0  0  0
   -7.3170   -2.9130  -20.5230 H   0  0  0  0  0  0  0  0  0  0  0  0
   -8.0290    0.2560  -23.6960 C   0  0  0  0  0  0  0  0  0  0  0  0
   -7.0680    0.6810  -24.8050 C   0  0  0  0  0  0  0  0  0  0  0  0
   -6.0840    0.8780  -24.3580 H   0  0  0  0  0  0  0  0  0  0  0  0
   -7.3990    1.6270  -25.2460 H   0  0  0  0  0  0  0  0  0  0  0  0
   -9.0650    0.2450  -24.0660 H   0  0  0  0  0  0  0  0  0  0  0  0
   -8.0070    0.9800  -22.8810 H   0  0  0  0  0  0  0  0  0  0  0  0
   -7.1230   -2.9910  -23.6000 H   0  0  0  0  0  0  0  0  0  0  0  0
   -8.4640   -2.3860  -24.5480 H   0  0  0  0  0  0  0  0  0  0  0  0
   -5.5310   -1.6150  -24.8120 H   0  0  0  0  0  0  0  0  0  0  0  0
   -6.4830   -2.5070  -25.9880 H   0  0  0  0  0  0  0  0  0  0  0  0
   -6.1070   -0.0780  -26.5620 H   0  0  0  0  0  0  0  0  0  0  0  0
   -9.0250   -0.8420  -26.2000 H   0  0  0  0  0  0  0  0  0  0  0  0
   -8.4570    0.5520  -27.0790 H   0  0  0  0  0  0  0  0  0  0  0  0
   -7.1120   -1.0120  -28.5940 H   0  0  0  0  0  0  0  0  0  0  0  0
   -7.8880   -2.3800  -27.7960 H   0  0  0  0  0  0  0  0  0  0  0  0
   -8.8610   -1.2190  -28.7060 H   0  0  0  0  0  0  0  0  0  0  0  0
  1  2  1  0  0  0  0
  1 41  1  0  0  0  0
  1 42  1  0  0  0  0
  1 43  1  0  0  0  0
  2  3  1  0  0  0  0
  2 39  1  0  0  0  0
  2 40  1  0  0  0  0
  3  4  1  0  0  0  0
  3 29  1  0  0  0  0
  3 38  1  0  0  0  0
  4  5  1  0  0  0  0
  4 36  1  0  0  0  0
  4 37  1  0  0  0  0
  5  6  1  0  0  0  0
  5 34  1  0  0  0  0
  5 35  1  0  0  0  0
  6  7  1  0  0  0  0
  6 28  1  0  0  0  0
  7  8  2  0  0  0  0
  7  9  1  0  0  0  0
  9 10  1  0  0  0  0
  9 26  1  0  0  0  0
  9 27  1  0  0  0  0
 10 11  2  0  0  0  0
 10 19  1  0  0  0  0
 11 12  1  0  0  0  0
 11 25  1  0  0  0  0
 12 13  2  0  0  0  0
 13 14  1  0  0  0  0
 13 24  1  0  0  0  0
 14 15  2  0  0  0  0
 14 19  1  0  0  0  0
 15 16  1  0  0  0  0
 15 23  1  0  0  0  0
 16 17  2  0  0  0  0
 16 22  1  0  0  0  0
 17 18  1  0  0  0  0
 17 21  1  0  0  0  0
 18 19  2  0  0  0  0
 18 20  1  0  0  0  0
 28 29  1  0  0  0  0
 28 32  1  0  0  0  0
 28 33  1  0  0  0  0
 29 30  1  0  0  0  0
 29 31  1  0  0  0  0
M  END
>  <MODEL>
      12

$$$$
