best_conformers_18.pdb
 OpenBabel01292518153D

 56 61  0  0  1  0  0  0  0  0999 V2000
   -6.9490   -5.1750  -22.9110 C   0  0  0  0  0  0  0  0  0  0  0  0
   -7.4690   -3.9750  -22.1200 C   0  0  1  0  0  0  0  0  0  0  0  0
   -6.4620   -3.4510  -21.0820 C   0  0  0  0  0  0  0  0  0  0  0  0
   -6.7810   -2.0410  -20.9660 N   0  0  0  0  0  0  0  0  0  0  0  0
   -6.1760   -1.1880  -20.0100 C   0  0  0  0  0  0  0  0  0  0  0  0
   -6.5320   -1.2950  -18.6910 C   0  0  0  0  0  0  0  0  0  0  0  0
   -6.0230   -0.5330  -17.6890 N   0  0  0  0  0  0  0  0  0  0  0  0
   -5.1090    0.3490  -18.0180 C   0  0  0  0  0  0  0  0  0  0  0  0
   -4.6180    0.5400  -19.3400 C   0  0  0  0  0  0  0  0  0  0  0  0
   -3.6120    1.5020  -19.6370 C   0  0  0  0  0  0  0  0  0  0  0  0
   -3.1420    1.6480  -20.9120 C   0  0  0  0  0  0  0  0  0  0  0  0
   -3.6480    0.8310  -21.9510 C   0  0  0  0  0  0  0  0  0  0  0  0
   -4.6180   -0.1000  -21.6910 C   0  0  0  0  0  0  0  0  0  0  0  0
   -5.1500   -0.2570  -20.3780 C   0  0  0  0  0  0  0  0  0  0  0  0
   -5.0000   -0.7160  -22.4980 H   0  0  0  0  0  0  0  0  0  0  0  0
   -3.2770    0.9580  -22.9630 H   0  0  0  0  0  0  0  0  0  0  0  0
   -2.3850    2.3960  -21.1370 H   0  0  0  0  0  0  0  0  0  0  0  0
   -3.2370    2.1220  -18.8260 H   0  0  0  0  0  0  0  0  0  0  0  0
   -4.7110    0.9660  -17.2100 H   0  0  0  0  0  0  0  0  0  0  0  0
   -7.2820   -2.0230  -18.3880 H   0  0  0  0  0  0  0  0  0  0  0  0
   -7.5430   -1.5520  -22.0000 C   0  0  0  0  0  0  0  0  0  0  0  0
   -7.8660   -0.3860  -22.1140 O   0  0  0  0  0  0  0  0  0  0  0  0
   -7.8940   -2.7110  -22.9540 C   0  0  1  0  0  0  0  0  0  0  0  0
   -7.1240   -2.4790  -24.2650 C   0  0  0  0  0  0  0  0  0  0  0  0
   -7.5810   -3.3110  -25.3740 N   0  0  0  0  0  0  0  0  0  0  0  0
   -6.6100   -3.7210  -26.3900 C   0  0  0  0  0  0  0  0  0  0  0  0
   -6.2050   -5.1760  -26.3240 C   0  0  0  0  0  0  0  0  0  0  0  0
   -4.9600   -5.7290  -25.9250 C   0  0  0  0  0  0  0  0  0  0  0  0
   -5.1420   -7.0940  -26.0140 C   0  0  0  0  0  0  0  0  0  0  0  0
   -6.4120   -7.2740  -26.4550 N   0  0  0  0  0  0  0  0  0  0  0  0
   -7.0700   -6.1230  -26.6580 N   0  0  0  0  0  0  0  0  0  0  0  0
   -6.8990   -8.1380  -26.6490 H   0  0  0  0  0  0  0  0  0  0  0  0
   -4.5080   -7.9380  -25.7850 H   0  0  0  0  0  0  0  0  0  0  0  0
   -4.0860   -5.1820  -25.5790 H   0  0  0  0  0  0  0  0  0  0  0  0
   -5.7180   -3.1050  -26.2450 H   0  0  0  0  0  0  0  0  0  0  0  0
   -7.0510   -3.5040  -27.3680 H   0  0  0  0  0  0  0  0  0  0  0  0
   -8.9070   -3.5270  -25.6330 C   0  0  0  0  0  0  0  0  0  0  0  0
   -9.2890   -4.0190  -26.6880 O   0  0  0  0  0  0  0  0  0  0  0  0
   -9.8450   -3.1500  -24.5210 C   0  0  0  0  0  0  0  0  0  0  0  0
  -11.2150   -3.3140  -24.7330 C   0  0  0  0  0  0  0  0  0  0  0  0
  -12.1020   -3.0470  -23.7050 C   0  0  0  0  0  0  0  0  0  0  0  0
  -11.6170   -2.5780  -22.4960 C   0  0  0  0  0  0  0  0  0  0  0  0
  -12.5190   -2.2790  -21.5560 F   0  0  0  0  0  0  0  0  0  0  0  0
  -10.2700   -2.4280  -22.2430 C   0  0  0  0  0  0  0  0  0  0  0  0
   -9.3690   -2.7260  -23.2730 C   0  0  0  0  0  0  0  0  0  0  0  0
   -9.9320   -2.1100  -21.2600 H   0  0  0  0  0  0  0  0  0  0  0  0
  -13.1710   -3.1830  -23.7470 H   0  0  0  0  0  0  0  0  0  0  0  0
  -11.5370   -3.6520  -25.7130 H   0  0  0  0  0  0  0  0  0  0  0  0
   -7.2300   -1.4070  -24.4940 H   0  0  0  0  0  0  0  0  0  0  0  0
   -6.0630   -2.7070  -24.0990 H   0  0  0  0  0  0  0  0  0  0  0  0
   -5.4260   -3.6020  -21.4250 H   0  0  0  0  0  0  0  0  0  0  0  0
   -6.5410   -3.9310  -20.1020 H   0  0  0  0  0  0  0  0  0  0  0  0
   -8.3890   -4.2700  -21.5980 H   0  0  0  0  0  0  0  0  0  0  0  0
   -6.7590   -6.0250  -22.2480 H   0  0  0  0  0  0  0  0  0  0  0  0
   -7.6660   -5.4890  -23.6760 H   0  0  0  0  0  0  0  0  0  0  0  0
   -6.0070   -4.9340  -23.4180 H   0  0  0  0  0  0  0  0  0  0  0  0
  1  2  1  0  0  0  0
  1 54  1  0  0  0  0
  1 55  1  0  0  0  0
  1 56  1  0  0  0  0
  2  3  1  0  0  0  0
  2 23  1  0  0  0  0
  2 53  1  1  0  0  0
  3  4  1  0  0  0  0
  3 51  1  0  0  0  0
  3 52  1  0  0  0  0
  4  5  1  0  0  0  0
  4 21  1  0  0  0  0
  5  6  2  0  0  0  0
  5 14  1  0  0  0  0
  6  7  1  0  0  0  0
  6 20  1  0  0  0  0
  7  8  2  0  0  0  0
  8  9  1  0  0  0  0
  8 19  1  0  0  0  0
  9 10  2  0  0  0  0
  9 14  1  0  0  0  0
 10 11  1  0  0  0  0
 10 18  1  0  0  0  0
 11 12  2  0  0  0  0
 11 17  1  0  0  0  0
 12 13  1  0  0  0  0
 12 16  1  0  0  0  0
 13 14  2  0  0  0  0
 13 15  1  0  0  0  0
 21 22  2  0  0  0  0
 23 21  1  1  0  0  0
 23 24  1  0  0  0  0
 23 45  1  0  0  0  0
 24 25  1  0  0  0  0
 24 49  1  0  0  0  0
 24 50  1  0  0  0  0
 25 26  1  0  0  0  0
 25 37  1  0  0  0  0
 26 27  1  0  0  0  0
 26 35  1  0  0  0  0
 26 36  1  0  0  0  0
 27 28  1  0  0  0  0
 27 31  2  0  0  0  0
 28 29  2  0  0  0  0
 28 34  1  0  0  0  0
 29 30  1  0  0  0  0
 29 33  1  0  0  0  0
 30 31  1  0  0  0  0
 30 32  1  0  0  0  0
 37 38  2  0  0  0  0
 37 39  1  0  0  0  0
 39 40  2  0  0  0  0
 39 45  1  0  0  0  0
 40 41  1  0  0  0  0
 40 48  1  0  0  0  0
 41 42  2  0  0  0  0
 41 47  1  0  0  0  0
 42 43  1  0  0  0  0
 42 44  1  0  0  0  0
 44 45  2  0  0  0  0
 44 46  1  0  0  0  0
M  END
>  <MODEL>
       1

$$$$
best_conformers_18.pdb
 OpenBabel01292518153D

 56 61  0  0  1  0  0  0  0  0999 V2000
   -7.0040   -5.1830  -22.8750 C   0  0  0  0  0  0  0  0  0  0  0  0
   -7.5050   -3.9710  -22.0970 C   0  0  1  0  0  0  0  0  0  0  0  0
   -6.4850   -3.4520  -21.0690 C   0  0  0  0  0  0  0  0  0  0  0  0
   -6.7830   -2.0360  -20.9670 N   0  0  0  0  0  0  0  0  0  0  0  0
   -6.1770   -1.1870  -20.0100 C   0  0  0  0  0  0  0  0  0  0  0  0
   -6.5320   -1.2940  -18.6910 C   0  0  0  0  0  0  0  0  0  0  0  0
   -6.0220   -0.5330  -17.6890 N   0  0  0  0  0  0  0  0  0  0  0  0
   -5.1080    0.3500  -18.0170 C   0  0  0  0  0  0  0  0  0  0  0  0
   -4.6160    0.5410  -19.3400 C   0  0  0  0  0  0  0  0  0  0  0  0
   -3.6110    1.5020  -19.6370 C   0  0  0  0  0  0  0  0  0  0  0  0
   -3.1410    1.6480  -20.9120 C   0  0  0  0  0  0  0  0  0  0  0  0
   -3.6470    0.8310  -21.9500 C   0  0  0  0  0  0  0  0  0  0  0  0
   -4.6170   -0.1000  -21.6890 C   0  0  0  0  0  0  0  0  0  0  0  0
   -5.1500   -0.2570  -20.3780 C   0  0  0  0  0  0  0  0  0  0  0  0
   -5.0000   -0.7170  -22.4960 H   0  0  0  0  0  0  0  0  0  0  0  0
   -3.2770    0.9570  -22.9630 H   0  0  0  0  0  0  0  0  0  0  0  0
   -2.3850    2.3950  -21.1380 H   0  0  0  0  0  0  0  0  0  0  0  0
   -3.2360    2.1220  -18.8260 H   0  0  0  0  0  0  0  0  0  0  0  0
   -4.7110    0.9660  -17.2100 H   0  0  0  0  0  0  0  0  0  0  0  0
   -7.2820   -2.0220  -18.3870 H   0  0  0  0  0  0  0  0  0  0  0  0
   -7.5440   -1.5460  -22.0020 C   0  0  0  0  0  0  0  0  0  0  0  0
   -7.8530   -0.3780  -22.1270 O   0  0  0  0  0  0  0  0  0  0  0  0
   -7.9080   -2.7090  -22.9450 C   0  0  1  0  0  0  0  0  0  0  0  0
   -7.1240   -2.4920  -24.2510 C   0  0  0  0  0  0  0  0  0  0  0  0
   -7.5830   -3.3090  -25.3640 N   0  0  0  0  0  0  0  0  0  0  0  0
   -6.5960   -3.7130  -26.3670 C   0  0  0  0  0  0  0  0  0  0  0  0
   -6.1220   -5.1400  -26.2320 C   0  0  0  0  0  0  0  0  0  0  0  0
   -6.8570   -6.3080  -26.5380 C   0  0  0  0  0  0  0  0  0  0  0  0
   -6.0100   -7.3500  -26.2240 C   0  0  0  0  0  0  0  0  0  0  0  0
   -4.8600   -6.7800  -25.7920 N   0  0  0  0  0  0  0  0  0  0  0  0
   -4.9060   -5.4350  -25.7900 N   0  0  0  0  0  0  0  0  0  0  0  0
   -4.0260   -7.2240  -25.4420 H   0  0  0  0  0  0  0  0  0  0  0  0
   -6.1280   -8.4240  -26.2540 H   0  0  0  0  0  0  0  0  0  0  0  0
   -7.8700   -6.3120  -26.9230 H   0  0  0  0  0  0  0  0  0  0  0  0
   -5.7390   -3.0330  -26.2880 H   0  0  0  0  0  0  0  0  0  0  0  0
   -7.0650   -3.5910  -27.3460 H   0  0  0  0  0  0  0  0  0  0  0  0
   -8.9050   -3.5580  -25.6130 C   0  0  0  0  0  0  0  0  0  0  0  0
   -9.2780   -4.0980  -26.6510 O   0  0  0  0  0  0  0  0  0  0  0  0
   -9.8550   -3.1490  -24.5180 C   0  0  0  0  0  0  0  0  0  0  0  0
  -11.2280   -3.2880  -24.7290 C   0  0  0  0  0  0  0  0  0  0  0  0
  -12.1130   -2.9930  -23.7060 C   0  0  0  0  0  0  0  0  0  0  0  0
  -11.6260   -2.5220  -22.5000 C   0  0  0  0  0  0  0  0  0  0  0  0
  -12.5340   -2.2100  -21.5710 F   0  0  0  0  0  0  0  0  0  0  0  0
  -10.2800   -2.3900  -22.2460 C   0  0  0  0  0  0  0  0  0  0  0  0
   -9.3820   -2.7110  -23.2710 C   0  0  0  0  0  0  0  0  0  0  0  0
   -9.9410   -2.0660  -21.2640 H   0  0  0  0  0  0  0  0  0  0  0  0
  -13.1870   -3.1040  -23.7370 H   0  0  0  0  0  0  0  0  0  0  0  0
  -11.5590   -3.6330  -25.7030 H   0  0  0  0  0  0  0  0  0  0  0  0
   -7.2100   -1.4200  -24.4870 H   0  0  0  0  0  0  0  0  0  0  0  0
   -6.0690   -2.7500  -24.0890 H   0  0  0  0  0  0  0  0  0  0  0  0
   -6.5630   -3.9200  -20.0850 H   0  0  0  0  0  0  0  0  0  0  0  0
   -5.4530   -3.6230  -21.4160 H   0  0  0  0  0  0  0  0  0  0  0  0
   -8.4310   -4.2420  -21.5720 H   0  0  0  0  0  0  0  0  0  0  0  0
   -7.7220   -5.4830  -23.6440 H   0  0  0  0  0  0  0  0  0  0  0  0
   -6.8370   -6.0360  -22.2080 H   0  0  0  0  0  0  0  0  0  0  0  0
   -6.0550   -4.9550  -23.3690 H   0  0  0  0  0  0  0  0  0  0  0  0
  1  2  1  0  0  0  0
  1 54  1  0  0  0  0
  1 55  1  0  0  0  0
  1 56  1  0  0  0  0
  2  3  1  0  0  0  0
  2 23  1  0  0  0  0
  2 53  1  1  0  0  0
  3  4  1  0  0  0  0
  3 51  1  0  0  0  0
  3 52  1  0  0  0  0
  4  5  1  0  0  0  0
  4 21  1  0  0  0  0
  5  6  2  0  0  0  0
  5 14  1  0  0  0  0
  6  7  1  0  0  0  0
  6 20  1  0  0  0  0
  7  8  2  0  0  0  0
  8  9  1  0  0  0  0
  8 19  1  0  0  0  0
  9 10  2  0  0  0  0
  9 14  1  0  0  0  0
 10 11  1  0  0  0  0
 10 18  1  0  0  0  0
 11 12  2  0  0  0  0
 11 17  1  0  0  0  0
 12 13  1  0  0  0  0
 12 16  1  0  0  0  0
 13 14  2  0  0  0  0
 13 15  1  0  0  0  0
 21 22  2  0  0  0  0
 23 21  1  1  0  0  0
 23 24  1  0  0  0  0
 23 45  1  0  0  0  0
 24 25  1  0  0  0  0
 24 49  1  0  0  0  0
 24 50  1  0  0  0  0
 25 26  1  0  0  0  0
 25 37  1  0  0  0  0
 26 27  1  0  0  0  0
 26 35  1  0  0  0  0
 26 36  1  0  0  0  0
 27 28  1  0  0  0  0
 27 31  2  0  0  0  0
 28 29  2  0  0  0  0
 28 34  1  0  0  0  0
 29 30  1  0  0  0  0
 29 33  1  0  0  0  0
 30 31  1  0  0  0  0
 30 32  1  0  0  0  0
 37 38  2  0  0  0  0
 37 39  1  0  0  0  0
 39 40  2  0  0  0  0
 39 45  1  0  0  0  0
 40 41  1  0  0  0  0
 40 48  1  0  0  0  0
 41 42  2  0  0  0  0
 41 47  1  0  0  0  0
 42 43  1  0  0  0  0
 42 44  1  0  0  0  0
 44 45  2  0  0  0  0
 44 46  1  0  0  0  0
M  END
>  <MODEL>
       2

$$$$
best_conformers_18.pdb
 OpenBabel01292518153D

 56 61  0  0  1  0  0  0  0  0999 V2000
   -6.9870   -5.2010  -22.8400 C   0  0  0  0  0  0  0  0  0  0  0  0
   -7.4600   -3.9740  -22.0700 C   0  0  1  0  0  0  0  0  0  0  0  0
   -6.4290   -3.4500  -21.0640 C   0  0  0  0  0  0  0  0  0  0  0  0
   -6.7500   -2.0440  -20.9490 N   0  0  0  0  0  0  0  0  0  0  0  0
   -6.1530   -1.1970  -19.9970 C   0  0  0  0  0  0  0  0  0  0  0  0
   -6.5300   -1.3080  -18.6830 C   0  0  0  0  0  0  0  0  0  0  0  0
   -6.0420   -0.5400  -17.6820 N   0  0  0  0  0  0  0  0  0  0  0  0
   -5.1250    0.3430  -18.0140 C   0  0  0  0  0  0  0  0  0  0  0  0
   -4.6290    0.5340  -19.3370 C   0  0  0  0  0  0  0  0  0  0  0  0
   -3.6270    1.4970  -19.6270 C   0  0  0  0  0  0  0  0  0  0  0  0
   -3.1470    1.6440  -20.8990 C   0  0  0  0  0  0  0  0  0  0  0  0
   -3.6420    0.8340  -21.9470 C   0  0  0  0  0  0  0  0  0  0  0  0
   -4.6160   -0.0990  -21.6970 C   0  0  0  0  0  0  0  0  0  0  0  0
   -5.1460   -0.2610  -20.3800 C   0  0  0  0  0  0  0  0  0  0  0  0
   -4.9860   -0.7090  -22.5190 H   0  0  0  0  0  0  0  0  0  0  0  0
   -3.2550    0.9600  -22.9550 H   0  0  0  0  0  0  0  0  0  0  0  0
   -2.3890    2.3920  -21.1150 H   0  0  0  0  0  0  0  0  0  0  0  0
   -3.2610    2.1150  -18.8120 H   0  0  0  0  0  0  0  0  0  0  0  0
   -4.7140    0.9600  -17.2150 H   0  0  0  0  0  0  0  0  0  0  0  0
   -7.2930   -2.0390  -18.4110 H   0  0  0  0  0  0  0  0  0  0  0  0
   -7.4970   -1.5510  -21.9880 C   0  0  0  0  0  0  0  0  0  0  0  0
   -7.8110   -0.3850  -22.1110 O   0  0  0  0  0  0  0  0  0  0  0  0
   -7.8460   -2.7130  -22.9260 C   0  0  1  0  0  0  0  0  0  0  0  0
   -7.0730   -2.4960  -24.2320 C   0  0  0  0  0  0  0  0  0  0  0  0
   -7.5220   -3.4070  -25.2670 N   0  0  0  0  0  0  0  0  0  0  0  0
   -6.5110   -3.8480  -26.2110 C   0  0  0  0  0  0  0  0  0  0  0  0
   -6.1920   -2.8140  -27.2420 C   0  0  0  0  0  0  0  0  0  0  0  0
   -6.8520   -2.6970  -28.4750 C   0  0  0  0  0  0  0  0  0  0  0  0
   -6.2500   -1.6340  -29.1000 C   0  0  0  0  0  0  0  0  0  0  0  0
   -5.3120   -1.1820  -28.2350 N   0  0  0  0  0  0  0  0  0  0  0  0
   -5.2680   -1.8790  -27.0870 N   0  0  0  0  0  0  0  0  0  0  0  0
   -4.7360   -0.3640  -28.3440 H   0  0  0  0  0  0  0  0  0  0  0  0
   -6.3910   -1.1730  -30.0690 H   0  0  0  0  0  0  0  0  0  0  0  0
   -7.6700   -3.3270  -28.7710 H   0  0  0  0  0  0  0  0  0  0  0  0
   -6.8900   -4.7540  -26.6950 H   0  0  0  0  0  0  0  0  0  0  0  0
   -5.6020   -4.0890  -25.6470 H   0  0  0  0  0  0  0  0  0  0  0  0
   -8.8480   -3.5470  -25.5870 C   0  0  0  0  0  0  0  0  0  0  0  0
   -9.2290   -4.0000  -26.6640 O   0  0  0  0  0  0  0  0  0  0  0  0
   -9.7980   -3.1540  -24.5010 C   0  0  0  0  0  0  0  0  0  0  0  0
  -11.1670   -3.3110  -24.7120 C   0  0  0  0  0  0  0  0  0  0  0  0
  -12.0470   -3.0370  -23.6820 C   0  0  0  0  0  0  0  0  0  0  0  0
  -11.5500   -2.5370  -22.4890 C   0  0  0  0  0  0  0  0  0  0  0  0
  -12.4590   -2.2570  -21.5490 F   0  0  0  0  0  0  0  0  0  0  0  0
  -10.2060   -2.3770  -22.2400 C   0  0  0  0  0  0  0  0  0  0  0  0
   -9.3140   -2.7200  -23.2600 C   0  0  0  0  0  0  0  0  0  0  0  0
   -9.8400   -2.0240  -21.2760 H   0  0  0  0  0  0  0  0  0  0  0  0
  -13.1140   -3.2290  -23.6900 H   0  0  0  0  0  0  0  0  0  0  0  0
  -11.4870   -3.6630  -25.6850 H   0  0  0  0  0  0  0  0  0  0  0  0
   -5.9980   -2.6450  -24.0660 H   0  0  0  0  0  0  0  0  0  0  0  0
   -7.2360   -1.4500  -24.5340 H   0  0  0  0  0  0  0  0  0  0  0  0
   -6.4820   -3.9240  -20.0810 H   0  0  0  0  0  0  0  0  0  0  0  0
   -5.4080   -3.5810  -21.4520 H   0  0  0  0  0  0  0  0  0  0  0  0
   -8.3770   -4.2390  -21.5220 H   0  0  0  0  0  0  0  0  0  0  0  0
   -6.7940   -6.0380  -22.1640 H   0  0  0  0  0  0  0  0  0  0  0  0
   -7.7310   -5.5220  -23.5740 H   0  0  0  0  0  0  0  0  0  0  0  0
   -6.0540   -4.9900  -23.3730 H   0  0  0  0  0  0  0  0  0  0  0  0
  1  2  1  0  0  0  0
  1 54  1  0  0  0  0
  1 55  1  0  0  0  0
  1 56  1  0  0  0  0
  2  3  1  0  0  0  0
  2 23  1  0  0  0  0
  2 53  1  1  0  0  0
  3  4  1  0  0  0  0
  3 51  1  0  0  0  0
  3 52  1  0  0  0  0
  4  5  1  0  0  0  0
  4 21  1  0  0  0  0
  5  6  2  0  0  0  0
  5 14  1  0  0  0  0
  6  7  1  0  0  0  0
  6 20  1  0  0  0  0
  7  8  2  0  0  0  0
  8  9  1  0  0  0  0
  8 19  1  0  0  0  0
  9 10  2  0  0  0  0
  9 14  1  0  0  0  0
 10 11  1  0  0  0  0
 10 18  1  0  0  0  0
 11 12  2  0  0  0  0
 11 17  1  0  0  0  0
 12 13  1  0  0  0  0
 12 16  1  0  0  0  0
 13 14  2  0  0  0  0
 13 15  1  0  0  0  0
 21 22  2  0  0  0  0
 23 21  1  1  0  0  0
 23 24  1  0  0  0  0
 23 45  1  0  0  0  0
 24 25  1  0  0  0  0
 24 49  1  0  0  0  0
 24 50  1  0  0  0  0
 25 26  1  0  0  0  0
 25 37  1  0  0  0  0
 26 27  1  0  0  0  0
 26 35  1  0  0  0  0
 26 36  1  0  0  0  0
 27 28  1  0  0  0  0
 27 31  2  0  0  0  0
 28 29  2  0  0  0  0
 28 34  1  0  0  0  0
 29 30  1  0  0  0  0
 29 33  1  0  0  0  0
 30 31  1  0  0  0  0
 30 32  1  0  0  0  0
 37 38  2  0  0  0  0
 37 39  1  0  0  0  0
 39 40  2  0  0  0  0
 39 45  1  0  0  0  0
 40 41  1  0  0  0  0
 40 48  1  0  0  0  0
 41 42  2  0  0  0  0
 41 47  1  0  0  0  0
 42 43  1  0  0  0  0
 42 44  1  0  0  0  0
 44 45  2  0  0  0  0
 44 46  1  0  0  0  0
M  END
>  <MODEL>
       3

$$$$
best_conformers_18.pdb
 OpenBabel01292518153D

 56 61  0  0  1  0  0  0  0  0999 V2000
   -6.9660   -5.1930  -22.8790 C   0  0  0  0  0  0  0  0  0  0  0  0
   -7.4710   -3.9750  -22.1040 C   0  0  1  0  0  0  0  0  0  0  0  0
   -6.4580   -3.4530  -21.0710 C   0  0  0  0  0  0  0  0  0  0  0  0
   -6.7700   -2.0410  -20.9640 N   0  0  0  0  0  0  0  0  0  0  0  0
   -6.1720   -1.1890  -20.0080 C   0  0  0  0  0  0  0  0  0  0  0  0
   -6.5320   -1.2980  -18.6890 C   0  0  0  0  0  0  0  0  0  0  0  0
   -6.0280   -0.5360  -17.6890 N   0  0  0  0  0  0  0  0  0  0  0  0
   -5.1130    0.3470  -18.0180 C   0  0  0  0  0  0  0  0  0  0  0  0
   -4.6200    0.5370  -19.3420 C   0  0  0  0  0  0  0  0  0  0  0  0
   -3.6160    1.5000  -19.6350 C   0  0  0  0  0  0  0  0  0  0  0  0
   -3.1410    1.6460  -20.9100 C   0  0  0  0  0  0  0  0  0  0  0  0
   -3.6440    0.8310  -21.9500 C   0  0  0  0  0  0  0  0  0  0  0  0
   -4.6160   -0.1020  -21.6940 C   0  0  0  0  0  0  0  0  0  0  0  0
   -5.1490   -0.2580  -20.3800 C   0  0  0  0  0  0  0  0  0  0  0  0
   -4.9950   -0.7150  -22.5060 H   0  0  0  0  0  0  0  0  0  0  0  0
   -3.2710    0.9590  -22.9620 H   0  0  0  0  0  0  0  0  0  0  0  0
   -2.3860    2.3960  -21.1320 H   0  0  0  0  0  0  0  0  0  0  0  0
   -3.2440    2.1190  -18.8230 H   0  0  0  0  0  0  0  0  0  0  0  0
   -4.7130    0.9630  -17.2120 H   0  0  0  0  0  0  0  0  0  0  0  0
   -7.2840   -2.0280  -18.3920 H   0  0  0  0  0  0  0  0  0  0  0  0
   -7.5200   -1.5500  -22.0030 C   0  0  0  0  0  0  0  0  0  0  0  0
   -7.8340   -0.3810  -22.1240 O   0  0  0  0  0  0  0  0  0  0  0  0
   -7.8670   -2.7110  -22.9490 C   0  0  1  0  0  0  0  0  0  0  0  0
   -7.0860   -2.5210  -24.2540 C   0  0  0  0  0  0  0  0  0  0  0  0
   -7.5170   -3.4240  -25.3090 N   0  0  0  0  0  0  0  0  0  0  0  0
   -6.5210   -3.8630  -26.2780 C   0  0  0  0  0  0  0  0  0  0  0  0
   -6.2010   -2.8400  -27.3360 C   0  0  0  0  0  0  0  0  0  0  0  0
   -5.3320   -1.7190  -27.2620 C   0  0  0  0  0  0  0  0  0  0  0  0
   -5.4680   -1.0940  -28.4810 C   0  0  0  0  0  0  0  0  0  0  0  0
   -6.3400   -1.8490  -29.1950 N   0  0  0  0  0  0  0  0  0  0  0  0
   -6.7870   -2.9080  -28.5150 N   0  0  0  0  0  0  0  0  0  0  0  0
   -6.7140   -1.6870  -30.1170 H   0  0  0  0  0  0  0  0  0  0  0  0
   -5.0520   -0.1840  -28.8940 H   0  0  0  0  0  0  0  0  0  0  0  0
   -4.6930   -1.4470  -26.4290 H   0  0  0  0  0  0  0  0  0  0  0  0
   -6.9030   -4.7770  -26.7440 H   0  0  0  0  0  0  0  0  0  0  0  0
   -5.6100   -4.0870  -25.7120 H   0  0  0  0  0  0  0  0  0  0  0  0
   -8.8430   -3.5690  -25.6220 C   0  0  0  0  0  0  0  0  0  0  0  0
   -9.2370   -4.0600  -26.6670 O   0  0  0  0  0  0  0  0  0  0  0  0
   -9.7880   -3.1340  -24.5450 C   0  0  0  0  0  0  0  0  0  0  0  0
  -11.1580   -3.2730  -24.7660 C   0  0  0  0  0  0  0  0  0  0  0  0
  -12.0410   -3.0000  -23.7380 C   0  0  0  0  0  0  0  0  0  0  0  0
  -11.5750   -2.5310  -22.5270 C   0  0  0  0  0  0  0  0  0  0  0  0
  -12.4880   -2.2130  -21.6000 F   0  0  0  0  0  0  0  0  0  0  0  0
  -10.2320   -2.3970  -22.2810 C   0  0  0  0  0  0  0  0  0  0  0  0
   -9.3270   -2.7040  -23.2980 C   0  0  0  0  0  0  0  0  0  0  0  0
   -9.8930   -2.0770  -21.3080 H   0  0  0  0  0  0  0  0  0  0  0  0
  -13.1060   -3.1700  -23.7700 H   0  0  0  0  0  0  0  0  0  0  0  0
  -11.4860   -3.6070  -25.7470 H   0  0  0  0  0  0  0  0  0  0  0  0
   -6.0230   -2.7050  -24.0700 H   0  0  0  0  0  0  0  0  0  0  0  0
   -7.2310   -1.4730  -24.5550 H   0  0  0  0  0  0  0  0  0  0  0  0
   -5.4250   -3.6030  -21.4210 H   0  0  0  0  0  0  0  0  0  0  0  0
   -6.5340   -3.9250  -20.0880 H   0  0  0  0  0  0  0  0  0  0  0  0
   -8.3990   -4.2490  -21.5850 H   0  0  0  0  0  0  0  0  0  0  0  0
   -6.0300   -4.9670  -23.4040 H   0  0  0  0  0  0  0  0  0  0  0  0
   -7.6920   -5.5160  -23.6300 H   0  0  0  0  0  0  0  0  0  0  0  0
   -6.7680   -6.0360  -22.2100 H   0  0  0  0  0  0  0  0  0  0  0  0
  1  2  1  0  0  0  0
  1 54  1  0  0  0  0
  1 55  1  0  0  0  0
  1 56  1  0  0  0  0
  2  3  1  0  0  0  0
  2 23  1  0  0  0  0
  2 53  1  1  0  0  0
  3  4  1  0  0  0  0
  3 51  1  0  0  0  0
  3 52  1  0  0  0  0
  4  5  1  0  0  0  0
  4 21  1  0  0  0  0
  5  6  2  0  0  0  0
  5 14  1  0  0  0  0
  6  7  1  0  0  0  0
  6 20  1  0  0  0  0
  7  8  2  0  0  0  0
  8  9  1  0  0  0  0
  8 19  1  0  0  0  0
  9 10  2  0  0  0  0
  9 14  1  0  0  0  0
 10 11  1  0  0  0  0
 10 18  1  0  0  0  0
 11 12  2  0  0  0  0
 11 17  1  0  0  0  0
 12 13  1  0  0  0  0
 12 16  1  0  0  0  0
 13 14  2  0  0  0  0
 13 15  1  0  0  0  0
 21 22  2  0  0  0  0
 23 21  1  1  0  0  0
 23 24  1  0  0  0  0
 23 45  1  0  0  0  0
 24 25  1  0  0  0  0
 24 49  1  0  0  0  0
 24 50  1  0  0  0  0
 25 26  1  0  0  0  0
 25 37  1  0  0  0  0
 26 27  1  0  0  0  0
 26 35  1  0  0  0  0
 26 36  1  0  0  0  0
 27 28  1  0  0  0  0
 27 31  2  0  0  0  0
 28 29  2  0  0  0  0
 28 34  1  0  0  0  0
 29 30  1  0  0  0  0
 29 33  1  0  0  0  0
 30 31  1  0  0  0  0
 30 32  1  0  0  0  0
 37 38  2  0  0  0  0
 37 39  1  0  0  0  0
 39 40  2  0  0  0  0
 39 45  1  0  0  0  0
 40 41  1  0  0  0  0
 40 48  1  0  0  0  0
 41 42  2  0  0  0  0
 41 47  1  0  0  0  0
 42 43  1  0  0  0  0
 42 44  1  0  0  0  0
 44 45  2  0  0  0  0
 44 46  1  0  0  0  0
M  END
>  <MODEL>
       4

$$$$
