best_conformers_15.pdb
 OpenBabel01292518153D

 63 68  0  0  1  0  0  0  0  0999 V2000
   -8.0420    0.1840  -28.9850 C   0  0  0  0  0  0  0  0  0  0  0  0
   -8.2810    0.3870  -27.5720 N   0  0  0  0  0  0  0  0  0  0  0  0
   -7.3780   -0.0880  -26.6730 C   0  0  0  0  0  0  0  0  0  0  0  0
   -6.3780   -0.7100  -26.9880 O   0  0  0  0  0  0  0  0  0  0  0  0
   -7.7220    0.2350  -25.2180 C   0  0  0  0  0  0  0  0  0  0  0  0
   -8.4410   -0.8500  -24.5910 N   0  0  0  0  0  0  0  0  0  0  0  0
   -7.7450   -2.0430  -24.1510 C   0  0  0  0  0  0  0  0  0  0  0  0
   -8.2550   -2.5190  -22.7570 C   0  0  2  0  0  0  0  0  0  0  0  0
   -7.8430   -1.4890  -21.6800 C   0  0  0  0  0  0  0  0  0  0  0  0
   -8.3310   -0.4000  -21.4780 O   0  0  0  0  0  0  0  0  0  0  0  0
   -6.8150   -2.0170  -20.9340 N   0  0  0  0  0  0  0  0  0  0  0  0
   -6.1620   -1.2100  -19.9750 C   0  0  0  0  0  0  0  0  0  0  0  0
   -6.5520   -1.2990  -18.6670 C   0  0  0  0  0  0  0  0  0  0  0  0
   -6.0370   -0.5510  -17.6620 N   0  0  0  0  0  0  0  0  0  0  0  0
   -5.1150    0.3250  -17.9900 C   0  0  0  0  0  0  0  0  0  0  0  0
   -4.6310    0.5250  -19.3160 C   0  0  0  0  0  0  0  0  0  0  0  0
   -3.6490    1.5050  -19.6130 C   0  0  0  0  0  0  0  0  0  0  0  0
   -3.1980    1.6700  -20.8930 C   0  0  0  0  0  0  0  0  0  0  0  0
   -3.7050    0.8650  -21.9390 C   0  0  0  0  0  0  0  0  0  0  0  0
   -4.6600   -0.0870  -21.6800 C   0  0  0  0  0  0  0  0  0  0  0  0
   -5.1560   -0.2700  -20.3550 C   0  0  0  0  0  0  0  0  0  0  0  0
   -5.0430   -0.7030  -22.4910 H   0  0  0  0  0  0  0  0  0  0  0  0
   -3.3400    1.0090  -22.9510 H   0  0  0  0  0  0  0  0  0  0  0  0
   -2.4470    2.4230  -21.1150 H   0  0  0  0  0  0  0  0  0  0  0  0
   -3.2750    2.1190  -18.8000 H   0  0  0  0  0  0  0  0  0  0  0  0
   -4.7020    0.9340  -17.1870 H   0  0  0  0  0  0  0  0  0  0  0  0
   -7.3330   -2.0060  -18.3970 H   0  0  0  0  0  0  0  0  0  0  0  0
   -6.3520   -3.3080  -21.3760 C   0  0  0  0  0  0  0  0  0  0  0  0
   -7.4880   -3.8060  -22.2930 C   0  0  2  0  0  0  0  0  0  0  0  0
   -6.8920   -4.6830  -23.4210 C   0  0  0  0  0  0  0  0  0  0  0  0
   -6.2300   -5.8900  -22.9440 N   0  0  0  0  0  0  0  0  0  0  0  0
   -4.9240   -6.0590  -22.6000 C   0  0  0  0  0  0  0  0  0  0  0  0
   -4.7890   -7.3730  -22.2020 C   0  0  0  0  0  0  0  0  0  0  0  0
   -6.0840   -7.9110  -22.3430 C   0  0  0  0  0  0  0  0  0  0  0  0
   -6.9490   -7.0080  -22.7780 N   0  0  0  0  0  0  0  0  0  0  0  0
   -6.4240   -8.9200  -22.1310 H   0  0  0  0  0  0  0  0  0  0  0  0
   -3.8880   -7.8870  -21.8950 H   0  0  0  0  0  0  0  0  0  0  0  0
   -4.2120   -5.2380  -22.6490 H   0  0  0  0  0  0  0  0  0  0  0  0
   -7.6770   -5.0010  -24.1140 H   0  0  0  0  0  0  0  0  0  0  0  0
   -6.1420   -4.0990  -23.9660 H   0  0  0  0  0  0  0  0  0  0  0  0
   -8.1840   -4.4220  -21.7170 H   0  0  0  0  0  0  0  0  0  0  0  0
   -5.4050   -3.2280  -21.9400 H   0  0  0  0  0  0  0  0  0  0  0  0
   -6.1690   -3.9740  -20.5280 H   0  0  0  0  0  0  0  0  0  0  0  0
   -9.7850   -2.5860  -22.8240 C   0  0  0  0  0  0  0  0  0  0  0  0
  -10.5560   -3.2040  -21.8260 C   0  0  0  0  0  0  0  0  0  0  0  0
  -11.9450   -3.1750  -21.9140 C   0  0  0  0  0  0  0  0  0  0  0  0
  -12.9850   -3.6880  -20.6120 Cl  0  0  0  0  0  0  0  0  0  0  0  0
  -12.5880   -2.6460  -23.0310 C   0  0  0  0  0  0  0  0  0  0  0  0
  -11.8450   -1.9630  -23.9610 C   0  0  0  0  0  0  0  0  0  0  0  0
  -10.4710   -1.8630  -23.8080 C   0  0  0  0  0  0  0  0  0  0  0  0
   -9.7960   -0.7920  -24.5900 C   0  0  0  0  0  0  0  0  0  0  0  0
  -10.4220    0.1190  -25.1280 O   0  0  0  0  0  0  0  0  0  0  0  0
  -12.3070   -1.4390  -24.7850 H   0  0  0  0  0  0  0  0  0  0  0  0
  -13.6620   -2.6990  -23.1090 H   0  0  0  0  0  0  0  0  0  0  0  0
  -10.0580   -3.6750  -20.9860 H   0  0  0  0  0  0  0  0  0  0  0  0
   -7.9120   -2.8580  -24.8740 H   0  0  0  0  0  0  0  0  0  0  0  0
   -6.6740   -1.8010  -24.1290 H   0  0  0  0  0  0  0  0  0  0  0  0
   -6.8090    0.4320  -24.6450 H   0  0  0  0  0  0  0  0  0  0  0  0
   -8.3660    1.1150  -25.1740 H   0  0  0  0  0  0  0  0  0  0  0  0
   -9.2170    0.5950  -27.2490 H   0  0  0  0  0  0  0  0  0  0  0  0
   -8.8310    0.6740  -29.5590 H   0  0  0  0  0  0  0  0  0  0  0  0
   -8.0070   -0.8790  -29.2410 H   0  0  0  0  0  0  0  0  0  0  0  0
   -7.0790    0.6210  -29.2610 H   0  0  0  0  0  0  0  0  0  0  0  0
  1  2  1  0  0  0  0
  1 61  1  0  0  0  0
  1 62  1  0  0  0  0
  1 63  1  0  0  0  0
  2  3  1  0  0  0  0
  2 60  1  0  0  0  0
  3  4  2  0  0  0  0
  3  5  1  0  0  0  0
  5  6  1  0  0  0  0
  5 58  1  0  0  0  0
  5 59  1  0  0  0  0
  6  7  1  0  0  0  0
  6 51  1  0  0  0  0
  7  8  1  0  0  0  0
  7 56  1  0  0  0  0
  7 57  1  0  0  0  0
  8  9  1  1  0  0  0
  8 29  1  0  0  0  0
  8 44  1  0  0  0  0
  9 10  2  0  0  0  0
  9 11  1  0  0  0  0
 11 12  1  0  0  0  0
 11 28  1  0  0  0  0
 12 13  2  0  0  0  0
 12 21  1  0  0  0  0
 13 14  1  0  0  0  0
 13 27  1  0  0  0  0
 14 15  2  0  0  0  0
 15 16  1  0  0  0  0
 15 26  1  0  0  0  0
 16 17  2  0  0  0  0
 16 21  1  0  0  0  0
 17 18  1  0  0  0  0
 17 25  1  0  0  0  0
 18 19  2  0  0  0  0
 18 24  1  0  0  0  0
 19 20  1  0  0  0  0
 19 23  1  0  0  0  0
 20 21  2  0  0  0  0
 20 22  1  0  0  0  0
 28 29  1  0  0  0  0
 28 42  1  0  0  0  0
 28 43  1  0  0  0  0
 29 30  1  0  0  0  0
 29 41  1  1  0  0  0
 30 31  1  0  0  0  0
 30 39  1  0  0  0  0
 30 40  1  0  0  0  0
 31 32  1  0  0  0  0
 31 35  1  0  0  0  0
 32 33  2  0  0  0  0
 32 38  1  0  0  0  0
 33 34  1  0  0  0  0
 33 37  1  0  0  0  0
 34 35  2  0  0  0  0
 34 36  1  0  0  0  0
 44 45  2  0  0  0  0
 44 50  1  0  0  0  0
 45 46  1  0  0  0  0
 45 55  1  0  0  0  0
 46 47  1  0  0  0  0
 46 48  2  0  0  0  0
 48 49  1  0  0  0  0
 48 54  1  0  0  0  0
 49 50  2  0  0  0  0
 49 53  1  0  0  0  0
 50 51  1  0  0  0  0
 51 52  2  0  0  0  0
M  END
>  <MODEL>
       1

$$$$
best_conformers_15.pdb
 OpenBabel01292518153D

 63 68  0  0  1  0  0  0  0  0999 V2000
   -6.2440   -7.1130  -26.0320 C   0  0  0  0  0  0  0  0  0  0  0  0
   -6.7100   -5.8210  -26.5130 N   0  0  0  0  0  0  0  0  0  0  0  0
   -5.9380   -4.7190  -26.3290 C   0  0  0  0  0  0  0  0  0  0  0  0
   -4.7730   -4.7920  -25.9670 O   0  0  0  0  0  0  0  0  0  0  0  0
   -6.6250   -3.3590  -26.5730 C   0  0  0  0  0  0  0  0  0  0  0  0
   -7.6010   -2.9890  -25.5520 N   0  0  0  0  0  0  0  0  0  0  0  0
   -7.2380   -2.0750  -24.4610 C   0  0  0  0  0  0  0  0  0  0  0  0
   -7.9120   -2.4300  -23.1020 C   0  0  2  0  0  0  0  0  0  0  0  0
   -7.6480   -1.3110  -22.0680 C   0  0  0  0  0  0  0  0  0  0  0  0
   -8.0590   -0.1670  -22.1080 O   0  0  0  0  0  0  0  0  0  0  0  0
   -6.8400   -1.8120  -21.0560 N   0  0  0  0  0  0  0  0  0  0  0  0
   -6.2250   -1.0300  -20.0350 C   0  0  0  0  0  0  0  0  0  0  0  0
   -6.5640   -1.2180  -18.7190 C   0  0  0  0  0  0  0  0  0  0  0  0
   -6.0540   -0.5160  -17.6730 N   0  0  0  0  0  0  0  0  0  0  0  0
   -5.1380    0.3860  -17.9400 C   0  0  0  0  0  0  0  0  0  0  0  0
   -4.6280    0.6300  -19.2480 C   0  0  0  0  0  0  0  0  0  0  0  0
   -3.6150    1.5960  -19.4970 C   0  0  0  0  0  0  0  0  0  0  0  0
   -3.0960    1.7430  -20.7550 C   0  0  0  0  0  0  0  0  0  0  0  0
   -3.5490    0.9260  -21.8150 C   0  0  0  0  0  0  0  0  0  0  0  0
   -4.5440    0.0060  -21.6030 C   0  0  0  0  0  0  0  0  0  0  0  0
   -5.1430   -0.1350  -20.3210 C   0  0  0  0  0  0  0  0  0  0  0  0
   -4.8780   -0.6280  -22.4190 H   0  0  0  0  0  0  0  0  0  0  0  0
   -3.1130    1.0350  -22.8040 H   0  0  0  0  0  0  0  0  0  0  0  0
   -2.3240    2.4850  -20.9470 H   0  0  0  0  0  0  0  0  0  0  0  0
   -3.2620    2.2120  -18.6720 H   0  0  0  0  0  0  0  0  0  0  0  0
   -4.7390    0.9590  -17.1000 H   0  0  0  0  0  0  0  0  0  0  0  0
   -7.2990   -1.9770  -18.4570 H   0  0  0  0  0  0  0  0  0  0  0  0
   -6.3250   -3.1310  -21.3450 C   0  0  0  0  0  0  0  0  0  0  0  0
   -7.3220   -3.6730  -22.3660 C   0  0  2  0  0  0  0  0  0  0  0  0
   -6.7410   -4.7720  -23.2550 C   0  0  0  0  0  0  0  0  0  0  0  0
   -6.4570   -5.9610  -22.4860 N   0  0  0  0  0  0  0  0  0  0  0  0
   -7.4270   -6.7730  -22.0160 C   0  0  0  0  0  0  0  0  0  0  0  0
   -6.8730   -7.4860  -20.9910 C   0  0  0  0  0  0  0  0  0  0  0  0
   -5.5150   -7.0930  -20.9680 C   0  0  0  0  0  0  0  0  0  0  0  0
   -5.2840   -6.1280  -21.8530 N   0  0  0  0  0  0  0  0  0  0  0  0
   -4.6930   -7.4800  -20.3730 H   0  0  0  0  0  0  0  0  0  0  0  0
   -7.4180   -8.1300  -20.3160 H   0  0  0  0  0  0  0  0  0  0  0  0
   -8.4170   -6.8230  -22.4600 H   0  0  0  0  0  0  0  0  0  0  0  0
   -7.4660   -5.0590  -24.0210 H   0  0  0  0  0  0  0  0  0  0  0  0
   -5.7960   -4.4850  -23.7070 H   0  0  0  0  0  0  0  0  0  0  0  0
   -8.1630   -4.1140  -21.8070 H   0  0  0  0  0  0  0  0  0  0  0  0
   -6.2830   -3.7160  -20.4230 H   0  0  0  0  0  0  0  0  0  0  0  0
   -5.3040   -3.0870  -21.7660 H   0  0  0  0  0  0  0  0  0  0  0  0
   -9.3880   -2.6770  -23.3640 C   0  0  0  0  0  0  0  0  0  0  0  0
  -10.3120   -2.5680  -22.3160 C   0  0  0  0  0  0  0  0  0  0  0  0
  -11.5740   -3.1250  -22.4580 C   0  0  0  0  0  0  0  0  0  0  0  0
  -12.7010   -3.1270  -21.1350 Cl  0  0  0  0  0  0  0  0  0  0  0  0
  -11.9690   -3.7510  -23.6400 C   0  0  0  0  0  0  0  0  0  0  0  0
  -11.0770   -3.8080  -24.6920 C   0  0  0  0  0  0  0  0  0  0  0  0
   -9.7980   -3.2720  -24.5620 C   0  0  0  0  0  0  0  0  0  0  0  0
   -8.8500   -3.5070  -25.6890 C   0  0  0  0  0  0  0  0  0  0  0  0
   -9.1610   -4.2040  -26.6590 O   0  0  0  0  0  0  0  0  0  0  0  0
  -11.3300   -4.2910  -25.6280 H   0  0  0  0  0  0  0  0  0  0  0  0
  -12.9600   -4.1890  -23.7120 H   0  0  0  0  0  0  0  0  0  0  0  0
  -10.0160   -2.1020  -21.3800 H   0  0  0  0  0  0  0  0  0  0  0  0
   -7.5290   -1.0460  -24.7110 H   0  0  0  0  0  0  0  0  0  0  0  0
   -6.1460   -2.0950  -24.3630 H   0  0  0  0  0  0  0  0  0  0  0  0
   -7.1440   -3.3890  -27.5360 H   0  0  0  0  0  0  0  0  0  0  0  0
   -5.8520   -2.5910  -26.5900 H   0  0  0  0  0  0  0  0  0  0  0  0
   -7.6680   -5.6960  -26.8100 H   0  0  0  0  0  0  0  0  0  0  0  0
   -5.2590   -7.3380  -26.4510 H   0  0  0  0  0  0  0  0  0  0  0  0
   -6.9480   -7.8880  -26.3490 H   0  0  0  0  0  0  0  0  0  0  0  0
   -6.1610   -7.1170  -24.9340 H   0  0  0  0  0  0  0  0  0  0  0  0
  1  2  1  0  0  0  0
  1 61  1  0  0  0  0
  1 62  1  0  0  0  0
  1 63  1  0  0  0  0
  2  3  1  0  0  0  0
  2 60  1  0  0  0  0
  3  4  2  0  0  0  0
  3  5  1  0  0  0  0
  5  6  1  0  0  0  0
  5 58  1  0  0  0  0
  5 59  1  0  0  0  0
  6  7  1  0  0  0  0
  6 51  1  0  0  0  0
  7  8  1  0  0  0  0
  7 56  1  0  0  0  0
  7 57  1  0  0  0  0
  8  9  1  1  0  0  0
  8 29  1  0  0  0  0
  8 44  1  0  0  0  0
  9 10  2  0  0  0  0
  9 11  1  0  0  0  0
 11 12  1  0  0  0  0
 11 28  1  0  0  0  0
 12 13  2  0  0  0  0
 12 21  1  0  0  0  0
 13 14  1  0  0  0  0
 13 27  1  0  0  0  0
 14 15  2  0  0  0  0
 15 16  1  0  0  0  0
 15 26  1  0  0  0  0
 16 17  2  0  0  0  0
 16 21  1  0  0  0  0
 17 18  1  0  0  0  0
 17 25  1  0  0  0  0
 18 19  2  0  0  0  0
 18 24  1  0  0  0  0
 19 20  1  0  0  0  0
 19 23  1  0  0  0  0
 20 21  2  0  0  0  0
 20 22  1  0  0  0  0
 28 29  1  0  0  0  0
 28 42  1  0  0  0  0
 28 43  1  0  0  0  0
 29 30  1  0  0  0  0
 29 41  1  1  0  0  0
 30 31  1  0  0  0  0
 30 39  1  0  0  0  0
 30 40  1  0  0  0  0
 31 32  1  0  0  0  0
 31 35  1  0  0  0  0
 32 33  2  0  0  0  0
 32 38  1  0  0  0  0
 33 34  1  0  0  0  0
 33 37  1  0  0  0  0
 34 35  2  0  0  0  0
 34 36  1  0  0  0  0
 44 45  2  0  0  0  0
 44 50  1  0  0  0  0
 45 46  1  0  0  0  0
 45 55  1  0  0  0  0
 46 47  1  0  0  0  0
 46 48  2  0  0  0  0
 48 49  1  0  0  0  0
 48 54  1  0  0  0  0
 49 50  2  0  0  0  0
 49 53  1  0  0  0  0
 50 51  1  0  0  0  0
 51 52  2  0  0  0  0
M  END
>  <MODEL>
       2

$$$$
best_conformers_15.pdb
 OpenBabel01292518153D

 63 68  0  0  1  0  0  0  0  0999 V2000
   -6.3950   -1.8000  -29.5080 C   0  0  0  0  0  0  0  0  0  0  0  0
   -6.7530   -2.7680  -28.4930 N   0  0  0  0  0  0  0  0  0  0  0  0
   -6.0880   -2.7450  -27.3140 C   0  0  0  0  0  0  0  0  0  0  0  0
   -5.1790   -1.9680  -27.0620 O   0  0  0  0  0  0  0  0  0  0  0  0
   -6.5840   -3.7500  -26.2850 C   0  0  0  0  0  0  0  0  0  0  0  0
   -7.5670   -3.1370  -25.4110 N   0  0  0  0  0  0  0  0  0  0  0  0
   -7.1580   -2.2160  -24.3650 C   0  0  0  0  0  0  0  0  0  0  0  0
   -7.8970   -2.5120  -23.0420 C   0  0  2  0  0  0  0  0  0  0  0  0
   -7.5750   -1.3950  -22.0350 C   0  0  0  0  0  0  0  0  0  0  0  0
   -7.9030   -0.2310  -22.1110 O   0  0  0  0  0  0  0  0  0  0  0  0
   -6.8000   -1.9240  -21.0200 N   0  0  0  0  0  0  0  0  0  0  0  0
   -6.1810   -1.1260  -20.0230 C   0  0  0  0  0  0  0  0  0  0  0  0
   -6.5340   -1.2890  -18.7100 C   0  0  0  0  0  0  0  0  0  0  0  0
   -6.0390   -0.5540  -17.6840 N   0  0  0  0  0  0  0  0  0  0  0  0
   -5.1340    0.3530  -17.9740 C   0  0  0  0  0  0  0  0  0  0  0  0
   -4.6260    0.5810  -19.2860 C   0  0  0  0  0  0  0  0  0  0  0  0
   -3.6180    1.5480  -19.5600 C   0  0  0  0  0  0  0  0  0  0  0  0
   -3.1200    1.6930  -20.8260 C   0  0  0  0  0  0  0  0  0  0  0  0
   -3.5910    0.8760  -21.8780 C   0  0  0  0  0  0  0  0  0  0  0  0
   -4.5670   -0.0560  -21.6400 C   0  0  0  0  0  0  0  0  0  0  0  0
   -5.1360   -0.2020  -20.3440 C   0  0  0  0  0  0  0  0  0  0  0  0
   -4.9200   -0.6930  -22.4460 H   0  0  0  0  0  0  0  0  0  0  0  0
   -3.1860    0.9930  -22.8780 H   0  0  0  0  0  0  0  0  0  0  0  0
   -2.3600    2.4410  -21.0370 H   0  0  0  0  0  0  0  0  0  0  0  0
   -3.2570    2.1730  -18.7480 H   0  0  0  0  0  0  0  0  0  0  0  0
   -4.7450    0.9480  -17.1460 H   0  0  0  0  0  0  0  0  0  0  0  0
   -7.2770   -2.0410  -18.4410 H   0  0  0  0  0  0  0  0  0  0  0  0
   -6.3700   -3.2840  -21.2660 C   0  0  0  0  0  0  0  0  0  0  0  0
   -7.3620   -3.7870  -22.3200 C   0  0  2  0  0  0  0  0  0  0  0  0
   -6.7780   -4.8920  -23.2300 C   0  0  0  0  0  0  0  0  0  0  0  0
   -6.3530   -6.0090  -22.4340 N   0  0  0  0  0  0  0  0  0  0  0  0
   -5.1390   -6.1640  -21.8560 C   0  0  0  0  0  0  0  0  0  0  0  0
   -5.2990   -7.1050  -20.8590 C   0  0  0  0  0  0  0  0  0  0  0  0
   -6.6790   -7.4250  -20.9220 C   0  0  0  0  0  0  0  0  0  0  0  0
   -7.3020   -6.7640  -21.8760 N   0  0  0  0  0  0  0  0  0  0  0  0
   -7.3050   -8.0670  -20.3190 H   0  0  0  0  0  0  0  0  0  0  0  0
   -4.5550   -7.4680  -20.1650 H   0  0  0  0  0  0  0  0  0  0  0  0
   -4.2970   -5.5650  -22.2060 H   0  0  0  0  0  0  0  0  0  0  0  0
   -7.5480   -5.2760  -23.8980 H   0  0  0  0  0  0  0  0  0  0  0  0
   -5.9060   -4.5420  -23.7960 H   0  0  0  0  0  0  0  0  0  0  0  0
   -8.2250   -4.2210  -21.7980 H   0  0  0  0  0  0  0  0  0  0  0  0
   -6.4020   -3.8690  -20.3430 H   0  0  0  0  0  0  0  0  0  0  0  0
   -5.3360   -3.3180  -21.6510 H   0  0  0  0  0  0  0  0  0  0  0  0
   -9.3850   -2.6450  -23.3380 C   0  0  0  0  0  0  0  0  0  0  0  0
  -10.3170   -2.4990  -22.2970 C   0  0  0  0  0  0  0  0  0  0  0  0
  -11.6070   -2.9750  -22.4640 C   0  0  0  0  0  0  0  0  0  0  0  0
  -12.7540   -2.9940  -21.1520 Cl  0  0  0  0  0  0  0  0  0  0  0  0
  -12.0260   -3.5210  -23.6730 C   0  0  0  0  0  0  0  0  0  0  0  0
  -11.1450   -3.5720  -24.7340 C   0  0  0  0  0  0  0  0  0  0  0  0
   -9.8320   -3.1290  -24.5760 C   0  0  0  0  0  0  0  0  0  0  0  0
   -8.8830   -3.3110  -25.7200 C   0  0  0  0  0  0  0  0  0  0  0  0
   -9.2460   -3.6550  -26.8440 O   0  0  0  0  0  0  0  0  0  0  0  0
  -11.4410   -4.0050  -25.6830 H   0  0  0  0  0  0  0  0  0  0  0  0
  -13.0320   -3.9140  -23.7540 H   0  0  0  0  0  0  0  0  0  0  0  0
  -10.0470   -2.0210  -21.3620 H   0  0  0  0  0  0  0  0  0  0  0  0
   -7.3640   -1.1790  -24.6600 H   0  0  0  0  0  0  0  0  0  0  0  0
   -6.0740   -2.3080  -24.2310 H   0  0  0  0  0  0  0  0  0  0  0  0
   -7.0650   -4.6090  -26.7620 H   0  0  0  0  0  0  0  0  0  0  0  0
   -5.7150   -4.0880  -25.7120 H   0  0  0  0  0  0  0  0  0  0  0  0
   -7.6480   -3.2410  -28.5300 H   0  0  0  0  0  0  0  0  0  0  0  0
   -6.9220   -2.0300  -30.4340 H   0  0  0  0  0  0  0  0  0  0  0  0
   -5.3180   -1.8530  -29.6890 H   0  0  0  0  0  0  0  0  0  0  0  0
   -6.6390   -0.7800  -29.1900 H   0  0  0  0  0  0  0  0  0  0  0  0
  1  2  1  0  0  0  0
  1 61  1  0  0  0  0
  1 62  1  0  0  0  0
  1 63  1  0  0  0  0
  2  3  1  0  0  0  0
  2 60  1  0  0  0  0
  3  4  2  0  0  0  0
  3  5  1  0  0  0  0
  5  6  1  0  0  0  0
  5 58  1  0  0  0  0
  5 59  1  0  0  0  0
  6  7  1  0  0  0  0
  6 51  1  0  0  0  0
  7  8  1  0  0  0  0
  7 56  1  0  0  0  0
  7 57  1  0  0  0  0
  8  9  1  1  0  0  0
  8 29  1  0  0  0  0
  8 44  1  0  0  0  0
  9 10  2  0  0  0  0
  9 11  1  0  0  0  0
 11 12  1  0  0  0  0
 11 28  1  0  0  0  0
 12 13  2  0  0  0  0
 12 21  1  0  0  0  0
 13 14  1  0  0  0  0
 13 27  1  0  0  0  0
 14 15  2  0  0  0  0
 15 16  1  0  0  0  0
 15 26  1  0  0  0  0
 16 17  2  0  0  0  0
 16 21  1  0  0  0  0
 17 18  1  0  0  0  0
 17 25  1  0  0  0  0
 18 19  2  0  0  0  0
 18 24  1  0  0  0  0
 19 20  1  0  0  0  0
 19 23  1  0  0  0  0
 20 21  2  0  0  0  0
 20 22  1  0  0  0  0
 28 29  1  0  0  0  0
 28 42  1  0  0  0  0
 28 43  1  0  0  0  0
 29 30  1  0  0  0  0
 29 41  1  1  0  0  0
 30 31  1  0  0  0  0
 30 39  1  0  0  0  0
 30 40  1  0  0  0  0
 31 32  1  0  0  0  0
 31 35  1  0  0  0  0
 32 33  2  0  0  0  0
 32 38  1  0  0  0  0
 33 34  1  0  0  0  0
 33 37  1  0  0  0  0
 34 35  2  0  0  0  0
 34 36  1  0  0  0  0
 44 45  2  0  0  0  0
 44 50  1  0  0  0  0
 45 46  1  0  0  0  0
 45 55  1  0  0  0  0
 46 47  1  0  0  0  0
 46 48  2  0  0  0  0
 48 49  1  0  0  0  0
 48 54  1  0  0  0  0
 49 50  2  0  0  0  0
 49 53  1  0  0  0  0
 50 51  1  0  0  0  0
 51 52  2  0  0  0  0
M  END
>  <MODEL>
       3

$$$$
best_conformers_15.pdb
 OpenBabel01292518153D

 63 68  0  0  1  0  0  0  0  0999 V2000
   -6.1020   -7.3420  -25.9330 C   0  0  0  0  0  0  0  0  0  0  0  0
   -6.6130   -6.0480  -26.3650 N   0  0  0  0  0  0  0  0  0  0  0  0
   -5.8990   -4.9210  -26.0970 C   0  0  0  0  0  0  0  0  0  0  0  0
   -4.7830   -4.9580  -25.6060 O   0  0  0  0  0  0  0  0  0  0  0  0
   -6.5790   -3.5800  -26.4370 C   0  0  0  0  0  0  0  0  0  0  0  0
   -7.5390   -3.1120  -25.4360 N   0  0  0  0  0  0  0  0  0  0  0  0
   -7.1170   -2.2560  -24.3280 C   0  0  0  0  0  0  0  0  0  0  0  0
   -7.8970   -2.5220  -23.0050 C   0  0  2  0  0  0  0  0  0  0  0  0
   -7.5570   -1.4010  -22.0160 C   0  0  0  0  0  0  0  0  0  0  0  0
   -7.8660   -0.2310  -22.0870 O   0  0  0  0  0  0  0  0  0  0  0  0
   -6.7880   -1.9380  -21.0020 N   0  0  0  0  0  0  0  0  0  0  0  0
   -6.1740   -1.1410  -20.0130 C   0  0  0  0  0  0  0  0  0  0  0  0
   -6.5310   -1.2950  -18.6990 C   0  0  0  0  0  0  0  0  0  0  0  0
   -6.0370   -0.5530  -17.6780 N   0  0  0  0  0  0  0  0  0  0  0  0
   -5.1300    0.3480  -17.9850 C   0  0  0  0  0  0  0  0  0  0  0  0
   -4.6250    0.5650  -19.3010 C   0  0  0  0  0  0  0  0  0  0  0  0
   -3.6210    1.5320  -19.5810 C   0  0  0  0  0  0  0  0  0  0  0  0
   -3.1310    1.6740  -20.8510 C   0  0  0  0  0  0  0  0  0  0  0  0
   -3.6100    0.8580  -21.9010 C   0  0  0  0  0  0  0  0  0  0  0  0
   -4.5860   -0.0720  -21.6590 C   0  0  0  0  0  0  0  0  0  0  0  0
   -5.1380   -0.2190  -20.3540 C   0  0  0  0  0  0  0  0  0  0  0  0
   -4.9490   -0.7020  -22.4650 H   0  0  0  0  0  0  0  0  0  0  0  0
   -3.2100    0.9790  -22.9040 H   0  0  0  0  0  0  0  0  0  0  0  0
   -2.3710    2.4210  -21.0630 H   0  0  0  0  0  0  0  0  0  0  0  0
   -3.2620    2.1550  -18.7660 H   0  0  0  0  0  0  0  0  0  0  0  0
   -4.7390    0.9520  -17.1670 H   0  0  0  0  0  0  0  0  0  0  0  0
   -7.2820   -2.0390  -18.4330 H   0  0  0  0  0  0  0  0  0  0  0  0
   -6.3880   -3.3090  -21.2070 C   0  0  0  0  0  0  0  0  0  0  0  0
   -7.3990   -3.7940  -22.2430 C   0  0  2  0  0  0  0  0  0  0  0  0
   -6.8780   -4.9030  -23.1500 C   0  0  0  0  0  0  0  0  0  0  0  0
   -6.4190   -6.0430  -22.4030 N   0  0  0  0  0  0  0  0  0  0  0  0
   -5.2020   -6.2400  -21.8370 C   0  0  0  0  0  0  0  0  0  0  0  0
   -5.3730   -7.1920  -20.8560 C   0  0  0  0  0  0  0  0  0  0  0  0
   -6.7560   -7.4870  -20.9180 C   0  0  0  0  0  0  0  0  0  0  0  0
   -7.3730   -6.7880  -21.8470 N   0  0  0  0  0  0  0  0  0  0  0  0
   -7.3640   -8.1150  -20.2740 H   0  0  0  0  0  0  0  0  0  0  0  0
   -4.6080   -7.5740  -20.1940 H   0  0  0  0  0  0  0  0  0  0  0  0
   -4.3240   -5.7120  -22.1960 H   0  0  0  0  0  0  0  0  0  0  0  0
   -7.6930   -5.2410  -23.7860 H   0  0  0  0  0  0  0  0  0  0  0  0
   -6.0360   -4.5630  -23.7400 H   0  0  0  0  0  0  0  0  0  0  0  0
   -8.2680   -4.1830  -21.6980 H   0  0  0  0  0  0  0  0  0  0  0  0
   -6.4350   -3.8650  -20.2680 H   0  0  0  0  0  0  0  0  0  0  0  0
   -5.3490   -3.3750  -21.5730 H   0  0  0  0  0  0  0  0  0  0  0  0
   -9.3860   -2.6370  -23.2900 C   0  0  0  0  0  0  0  0  0  0  0  0
  -10.3430   -2.4450  -22.2750 C   0  0  0  0  0  0  0  0  0  0  0  0
  -11.6440   -2.8970  -22.4610 C   0  0  0  0  0  0  0  0  0  0  0  0
  -12.8120   -2.8370  -21.1700 Cl  0  0  0  0  0  0  0  0  0  0  0  0
  -12.0500   -3.4550  -23.6690 C   0  0  0  0  0  0  0  0  0  0  0  0
  -11.1340   -3.5680  -24.6960 C   0  0  0  0  0  0  0  0  0  0  0  0
   -9.8050   -3.1810  -24.5090 C   0  0  0  0  0  0  0  0  0  0  0  0
   -8.8320   -3.5210  -25.6020 C   0  0  0  0  0  0  0  0  0  0  0  0
   -9.1760   -4.1900  -26.5720 O   0  0  0  0  0  0  0  0  0  0  0  0
  -11.4240   -3.9890  -25.6530 H   0  0  0  0  0  0  0  0  0  0  0  0
  -13.0720   -3.8080  -23.7730 H   0  0  0  0  0  0  0  0  0  0  0  0
  -10.0780   -1.9770  -21.3330 H   0  0  0  0  0  0  0  0  0  0  0  0
   -7.2240   -1.1950  -24.5940 H   0  0  0  0  0  0  0  0  0  0  0  0
   -6.0470   -2.4350  -24.1540 H   0  0  0  0  0  0  0  0  0  0  0  0
   -7.1400   -3.6890  -27.3680 H   0  0  0  0  0  0  0  0  0  0  0  0
   -5.7870   -2.8380  -26.5680 H   0  0  0  0  0  0  0  0  0  0  0  0
   -7.5820   -5.9650  -26.6410 H   0  0  0  0  0  0  0  0  0  0  0  0
   -5.1580   -7.5730  -26.4370 H   0  0  0  0  0  0  0  0  0  0  0  0
   -5.9200   -7.3550  -24.8500 H   0  0  0  0  0  0  0  0  0  0  0  0
   -6.8350   -8.1110  -26.1900 H   0  0  0  0  0  0  0  0  0  0  0  0
  1  2  1  0  0  0  0
  1 61  1  0  0  0  0
  1 62  1  0  0  0  0
  1 63  1  0  0  0  0
  2  3  1  0  0  0  0
  2 60  1  0  0  0  0
  3  4  2  0  0  0  0
  3  5  1  0  0  0  0
  5  6  1  0  0  0  0
  5 58  1  0  0  0  0
  5 59  1  0  0  0  0
  6  7  1  0  0  0  0
  6 51  1  0  0  0  0
  7  8  1  0  0  0  0
  7 56  1  0  0  0  0
  7 57  1  0  0  0  0
  8  9  1  1  0  0  0
  8 29  1  0  0  0  0
  8 44  1  0  0  0  0
  9 10  2  0  0  0  0
  9 11  1  0  0  0  0
 11 12  1  0  0  0  0
 11 28  1  0  0  0  0
 12 13  2  0  0  0  0
 12 21  1  0  0  0  0
 13 14  1  0  0  0  0
 13 27  1  0  0  0  0
 14 15  2  0  0  0  0
 15 16  1  0  0  0  0
 15 26  1  0  0  0  0
 16 17  2  0  0  0  0
 16 21  1  0  0  0  0
 17 18  1  0  0  0  0
 17 25  1  0  0  0  0
 18 19  2  0  0  0  0
 18 24  1  0  0  0  0
 19 20  1  0  0  0  0
 19 23  1  0  0  0  0
 20 21  2  0  0  0  0
 20 22  1  0  0  0  0
 28 29  1  0  0  0  0
 28 42  1  0  0  0  0
 28 43  1  0  0  0  0
 29 30  1  0  0  0  0
 29 41  1  1  0  0  0
 30 31  1  0  0  0  0
 30 39  1  0  0  0  0
 30 40  1  0  0  0  0
 31 32  1  0  0  0  0
 31 35  1  0  0  0  0
 32 33  2  0  0  0  0
 32 38  1  0  0  0  0
 33 34  1  0  0  0  0
 33 37  1  0  0  0  0
 34 35  2  0  0  0  0
 34 36  1  0  0  0  0
 44 45  2  0  0  0  0
 44 50  1  0  0  0  0
 45 46  1  0  0  0  0
 45 55  1  0  0  0  0
 46 47  1  0  0  0  0
 46 48  2  0  0  0  0
 48 49  1  0  0  0  0
 48 54  1  0  0  0  0
 49 50  2  0  0  0  0
 49 53  1  0  0  0  0
 50 51  1  0  0  0  0
 51 52  2  0  0  0  0
M  END
>  <MODEL>
       4

$$$$
best_conformers_15.pdb
 OpenBabel01292518153D

 63 68  0  0  1  0  0  0  0  0999 V2000
   -6.3390   -1.7760  -29.5280 C   0  0  0  0  0  0  0  0  0  0  0  0
   -6.7070   -2.7180  -28.4960 N   0  0  0  0  0  0  0  0  0  0  0  0
   -6.0120   -2.7290  -27.3340 C   0  0  0  0  0  0  0  0  0  0  0  0
   -5.0320   -2.0330  -27.1200 O   0  0  0  0  0  0  0  0  0  0  0  0
   -6.5820   -3.6740  -26.2870 C   0  0  0  0  0  0  0  0  0  0  0  0
   -7.5880   -3.0040  -25.4770 N   0  0  0  0  0  0  0  0  0  0  0  0
   -7.1850   -2.0920  -24.4170 C   0  0  0  0  0  0  0  0  0  0  0  0
   -7.9140   -2.4210  -23.0900 C   0  0  2  0  0  0  0  0  0  0  0  0
   -7.5990   -1.3220  -22.0570 C   0  0  0  0  0  0  0  0  0  0  0  0
   -7.9400   -0.1580  -22.0960 O   0  0  0  0  0  0  0  0  0  0  0  0
   -6.8190   -1.8620  -21.0490 N   0  0  0  0  0  0  0  0  0  0  0  0
   -6.1900   -1.0870  -20.0350 C   0  0  0  0  0  0  0  0  0  0  0  0
   -6.5400   -1.2620  -18.7210 C   0  0  0  0  0  0  0  0  0  0  0  0
   -6.0420   -0.5400  -17.6840 N   0  0  0  0  0  0  0  0  0  0  0  0
   -5.1310    0.3650  -17.9640 C   0  0  0  0  0  0  0  0  0  0  0  0
   -4.6220    0.6030  -19.2750 C   0  0  0  0  0  0  0  0  0  0  0  0
   -3.6140    1.5710  -19.5420 C   0  0  0  0  0  0  0  0  0  0  0  0
   -3.1060    1.7150  -20.8040 C   0  0  0  0  0  0  0  0  0  0  0  0
   -3.5660    0.8960  -21.8580 C   0  0  0  0  0  0  0  0  0  0  0  0
   -4.5480   -0.0320  -21.6310 C   0  0  0  0  0  0  0  0  0  0  0  0
   -5.1290   -0.1730  -20.3400 C   0  0  0  0  0  0  0  0  0  0  0  0
   -4.8880   -0.6690  -22.4420 H   0  0  0  0  0  0  0  0  0  0  0  0
   -3.1480    1.0090  -22.8540 H   0  0  0  0  0  0  0  0  0  0  0  0
   -2.3410    2.4590  -21.0080 H   0  0  0  0  0  0  0  0  0  0  0  0
   -3.2530    2.1920  -18.7260 H   0  0  0  0  0  0  0  0  0  0  0  0
   -4.7390    0.9520  -17.1320 H   0  0  0  0  0  0  0  0  0  0  0  0
   -7.2810   -2.0160  -18.4570 H   0  0  0  0  0  0  0  0  0  0  0  0
   -6.3760   -3.2100  -21.3250 C   0  0  0  0  0  0  0  0  0  0  0  0
   -7.3640   -3.7020  -22.3830 C   0  0  2  0  0  0  0  0  0  0  0  0
   -6.7720   -4.7970  -23.2940 C   0  0  0  0  0  0  0  0  0  0  0  0
   -6.4940   -5.9870  -22.5370 N   0  0  0  0  0  0  0  0  0  0  0  0
   -7.4370   -6.7900  -22.0130 C   0  0  0  0  0  0  0  0  0  0  0  0
   -6.8400   -7.4790  -21.0010 C   0  0  0  0  0  0  0  0  0  0  0  0
   -5.4910   -7.0690  -21.0230 C   0  0  0  0  0  0  0  0  0  0  0  0
   -5.3040   -6.1300  -21.9410 N   0  0  0  0  0  0  0  0  0  0  0  0
   -4.6450   -7.3860  -20.4340 H   0  0  0  0  0  0  0  0  0  0  0  0
   -7.3760   -8.0980  -20.3060 H   0  0  0  0  0  0  0  0  0  0  0  0
   -8.4480   -6.8160  -22.3980 H   0  0  0  0  0  0  0  0  0  0  0  0
   -5.8050   -4.5060  -23.7030 H   0  0  0  0  0  0  0  0  0  0  0  0
   -7.4750   -5.0600  -24.0890 H   0  0  0  0  0  0  0  0  0  0  0  0
   -8.2280   -4.1450  -21.8670 H   0  0  0  0  0  0  0  0  0  0  0  0
   -6.3930   -3.8060  -20.4090 H   0  0  0  0  0  0  0  0  0  0  0  0
   -5.3470   -3.2220  -21.7210 H   0  0  0  0  0  0  0  0  0  0  0  0
   -9.4020   -2.5910  -23.3750 C   0  0  0  0  0  0  0  0  0  0  0  0
  -10.3330   -2.4720  -22.3350 C   0  0  0  0  0  0  0  0  0  0  0  0
  -11.5980   -3.0270  -22.4790 C   0  0  0  0  0  0  0  0  0  0  0  0
  -12.7200   -3.0640  -21.1540 Cl  0  0  0  0  0  0  0  0  0  0  0  0
  -11.9950   -3.6030  -23.6810 C   0  0  0  0  0  0  0  0  0  0  0  0
  -11.1190   -3.6230  -24.7450 C   0  0  0  0  0  0  0  0  0  0  0  0
   -9.8360   -3.0950  -24.6070 C   0  0  0  0  0  0  0  0  0  0  0  0
   -8.9020   -3.2210  -25.7730 C   0  0  0  0  0  0  0  0  0  0  0  0
   -9.2690   -3.5710  -26.8910 O   0  0  0  0  0  0  0  0  0  0  0  0
  -11.3880   -4.0670  -25.6980 H   0  0  0  0  0  0  0  0  0  0  0  0
  -12.9850   -4.0400  -23.7510 H   0  0  0  0  0  0  0  0  0  0  0  0
  -10.0460   -1.9840  -21.4120 H   0  0  0  0  0  0  0  0  0  0  0  0
   -7.4040   -1.0500  -24.6970 H   0  0  0  0  0  0  0  0  0  0  0  0
   -6.0980   -2.1830  -24.2920 H   0  0  0  0  0  0  0  0  0  0  0  0
   -7.0560   -4.5370  -26.7640 H   0  0  0  0  0  0  0  0  0  0  0  0
   -5.7440   -4.0160  -25.6730 H   0  0  0  0  0  0  0  0  0  0  0  0
   -7.6110   -3.1680  -28.5290 H   0  0  0  0  0  0  0  0  0  0  0  0
   -6.6040   -0.7500  -29.2440 H   0  0  0  0  0  0  0  0  0  0  0  0
   -5.2580   -1.8310  -29.6890 H   0  0  0  0  0  0  0  0  0  0  0  0
   -6.8530   -2.0390  -30.4550 H   0  0  0  0  0  0  0  0  0  0  0  0
  1  2  1  0  0  0  0
  1 61  1  0  0  0  0
  1 62  1  0  0  0  0
  1 63  1  0  0  0  0
  2  3  1  0  0  0  0
  2 60  1  0  0  0  0
  3  4  2  0  0  0  0
  3  5  1  0  0  0  0
  5  6  1  0  0  0  0
  5 58  1  0  0  0  0
  5 59  1  0  0  0  0
  6  7  1  0  0  0  0
  6 51  1  0  0  0  0
  7  8  1  0  0  0  0
  7 56  1  0  0  0  0
  7 57  1  0  0  0  0
  8  9  1  1  0  0  0
  8 29  1  0  0  0  0
  8 44  1  0  0  0  0
  9 10  2  0  0  0  0
  9 11  1  0  0  0  0
 11 12  1  0  0  0  0
 11 28  1  0  0  0  0
 12 13  2  0  0  0  0
 12 21  1  0  0  0  0
 13 14  1  0  0  0  0
 13 27  1  0  0  0  0
 14 15  2  0  0  0  0
 15 16  1  0  0  0  0
 15 26  1  0  0  0  0
 16 17  2  0  0  0  0
 16 21  1  0  0  0  0
 17 18  1  0  0  0  0
 17 25  1  0  0  0  0
 18 19  2  0  0  0  0
 18 24  1  0  0  0  0
 19 20  1  0  0  0  0
 19 23  1  0  0  0  0
 20 21  2  0  0  0  0
 20 22  1  0  0  0  0
 28 29  1  0  0  0  0
 28 42  1  0  0  0  0
 28 43  1  0  0  0  0
 29 30  1  0  0  0  0
 29 41  1  1  0  0  0
 30 31  1  0  0  0  0
 30 39  1  0  0  0  0
 30 40  1  0  0  0  0
 31 32  1  0  0  0  0
 31 35  1  0  0  0  0
 32 33  2  0  0  0  0
 32 38  1  0  0  0  0
 33 34  1  0  0  0  0
 33 37  1  0  0  0  0
 34 35  2  0  0  0  0
 34 36  1  0  0  0  0
 44 45  2  0  0  0  0
 44 50  1  0  0  0  0
 45 46  1  0  0  0  0
 45 55  1  0  0  0  0
 46 47  1  0  0  0  0
 46 48  2  0  0  0  0
 48 49  1  0  0  0  0
 48 54  1  0  0  0  0
 49 50  2  0  0  0  0
 49 53  1  0  0  0  0
 50 51  1  0  0  0  0
 51 52  2  0  0  0  0
M  END
>  <MODEL>
       5

$$$$
