best_conformers_87.pdb
 OpenBabel01292518153D

 59 64  0  0  1  0  0  0  0  0999 V2000
   -6.9060   -5.1660  -22.9160 C   0  0  0  0  0  0  0  0  0  0  0  0
   -7.4390   -3.9730  -22.1310 C   0  0  1  0  0  0  0  0  0  0  0  0
   -6.4360   -3.4490  -21.0890 C   0  0  0  0  0  0  0  0  0  0  0  0
   -6.7720   -2.0450  -20.9660 N   0  0  0  0  0  0  0  0  0  0  0  0
   -6.1720   -1.1900  -20.0080 C   0  0  0  0  0  0  0  0  0  0  0  0
   -6.5320   -1.2970  -18.6900 C   0  0  0  0  0  0  0  0  0  0  0  0
   -6.0260   -0.5350  -17.6890 N   0  0  0  0  0  0  0  0  0  0  0  0
   -5.1110    0.3480  -18.0180 C   0  0  0  0  0  0  0  0  0  0  0  0
   -4.6190    0.5400  -19.3420 C   0  0  0  0  0  0  0  0  0  0  0  0
   -3.6130    1.5010  -19.6360 C   0  0  0  0  0  0  0  0  0  0  0  0
   -3.1420    1.6460  -20.9120 C   0  0  0  0  0  0  0  0  0  0  0  0
   -3.6460    0.8320  -21.9510 C   0  0  0  0  0  0  0  0  0  0  0  0
   -4.6190   -0.1000  -21.6930 C   0  0  0  0  0  0  0  0  0  0  0  0
   -5.1500   -0.2570  -20.3790 C   0  0  0  0  0  0  0  0  0  0  0  0
   -4.9980   -0.7150  -22.5030 H   0  0  0  0  0  0  0  0  0  0  0  0
   -3.2740    0.9580  -22.9630 H   0  0  0  0  0  0  0  0  0  0  0  0
   -2.3850    2.3950  -21.1350 H   0  0  0  0  0  0  0  0  0  0  0  0
   -3.2400    2.1200  -18.8250 H   0  0  0  0  0  0  0  0  0  0  0  0
   -4.7120    0.9640  -17.2120 H   0  0  0  0  0  0  0  0  0  0  0  0
   -7.2830   -2.0280  -18.3930 H   0  0  0  0  0  0  0  0  0  0  0  0
   -7.5320   -1.5580  -22.0040 C   0  0  0  0  0  0  0  0  0  0  0  0
   -7.8730   -0.3970  -22.1110 O   0  0  0  0  0  0  0  0  0  0  0  0
   -7.8590   -2.7110  -22.9710 C   0  0  1  0  0  0  0  0  0  0  0  0
   -7.0680   -2.4600  -24.2710 C   0  0  0  0  0  0  0  0  0  0  0  0
   -7.5010   -3.2760  -25.4010 N   0  0  0  0  0  0  0  0  0  0  0  0
   -6.5080   -3.4720  -26.4550 C   0  0  0  0  0  0  0  0  0  0  0  0
   -5.4360   -4.4720  -26.1150 C   0  0  0  0  0  0  0  0  0  0  0  0
   -4.1670   -4.2940  -25.5910 C   0  0  0  0  0  0  0  0  0  0  0  0
   -3.6570   -5.5980  -25.4230 C   0  0  0  0  0  0  0  0  0  0  0  0
   -4.5290   -6.5120  -25.8260 N   0  0  0  0  0  0  0  0  0  0  0  0
   -5.5970   -5.8140  -26.2480 N   0  0  0  0  0  0  0  0  0  0  0  0
   -6.7690   -6.5250  -26.7120 C   0  0  0  0  0  0  0  0  0  0  0  0
   -7.0580   -6.1780  -27.7100 H   0  0  0  0  0  0  0  0  0  0  0  0
   -6.4890   -7.5800  -26.7370 H   0  0  0  0  0  0  0  0  0  0  0  0
   -7.6120   -6.3800  -26.0260 H   0  0  0  0  0  0  0  0  0  0  0  0
   -2.7150   -5.9350  -25.0010 H   0  0  0  0  0  0  0  0  0  0  0  0
   -3.6940   -3.3430  -25.3640 H   0  0  0  0  0  0  0  0  0  0  0  0
   -7.0630   -3.7470  -27.3550 H   0  0  0  0  0  0  0  0  0  0  0  0
   -6.0070   -2.5140  -26.6410 H   0  0  0  0  0  0  0  0  0  0  0  0
   -8.8170   -3.5560  -25.6570 C   0  0  0  0  0  0  0  0  0  0  0  0
   -9.1940   -4.0990  -26.6910 O   0  0  0  0  0  0  0  0  0  0  0  0
   -9.7750   -3.1950  -24.5630 C   0  0  0  0  0  0  0  0  0  0  0  0
  -11.1350   -3.4080  -24.7800 C   0  0  0  0  0  0  0  0  0  0  0  0
  -12.0370   -3.1690  -23.7520 C   0  0  0  0  0  0  0  0  0  0  0  0
  -11.5830   -2.6590  -22.5470 C   0  0  0  0  0  0  0  0  0  0  0  0
  -12.4890   -2.3520  -21.6090 F   0  0  0  0  0  0  0  0  0  0  0  0
  -10.2460   -2.4640  -22.3020 C   0  0  0  0  0  0  0  0  0  0  0  0
   -9.3280   -2.7420  -23.3160 C   0  0  0  0  0  0  0  0  0  0  0  0
   -9.9210   -2.1280  -21.3260 H   0  0  0  0  0  0  0  0  0  0  0  0
  -13.0940   -3.3900  -23.7950 H   0  0  0  0  0  0  0  0  0  0  0  0
  -11.4480   -3.7510  -25.7640 H   0  0  0  0  0  0  0  0  0  0  0  0
   -7.1840   -1.3870  -24.4970 H   0  0  0  0  0  0  0  0  0  0  0  0
   -6.0060   -2.6760  -24.1120 H   0  0  0  0  0  0  0  0  0  0  0  0
   -6.5110   -3.9430  -20.1160 H   0  0  0  0  0  0  0  0  0  0  0  0
   -5.3990   -3.5770  -21.4380 H   0  0  0  0  0  0  0  0  0  0  0  0
   -8.3600   -4.2680  -21.6080 H   0  0  0  0  0  0  0  0  0  0  0  0
   -7.6090   -5.4750  -23.6960 H   0  0  0  0  0  0  0  0  0  0  0  0
   -6.7280   -6.0240  -22.2580 H   0  0  0  0  0  0  0  0  0  0  0  0
   -5.9550   -4.9000  -23.3840 H   0  0  0  0  0  0  0  0  0  0  0  0
  1  2  1  0  0  0  0
  1 57  1  0  0  0  0
  1 58  1  0  0  0  0
  1 59  1  0  0  0  0
  2  3  1  0  0  0  0
  2 23  1  0  0  0  0
  2 56  1  1  0  0  0
  3  4  1  0  0  0  0
  3 54  1  0  0  0  0
  3 55  1  0  0  0  0
  4  5  1  0  0  0  0
  4 21  1  0  0  0  0
  5  6  2  0  0  0  0
  5 14  1  0  0  0  0
  6  7  1  0  0  0  0
  6 20  1  0  0  0  0
  7  8  2  0  0  0  0
  8  9  1  0  0  0  0
  8 19  1  0  0  0  0
  9 10  2  0  0  0  0
  9 14  1  0  0  0  0
 10 11  1  0  0  0  0
 10 18  1  0  0  0  0
 11 12  2  0  0  0  0
 11 17  1  0  0  0  0
 12 13  1  0  0  0  0
 12 16  1  0  0  0  0
 13 14  2  0  0  0  0
 13 15  1  0  0  0  0
 21 22  2  0  0  0  0
 23 21  1  1  0  0  0
 23 24  1  0  0  0  0
 23 48  1  0  0  0  0
 24 25  1  0  0  0  0
 24 52  1  0  0  0  0
 24 53  1  0  0  0  0
 25 26  1  0  0  0  0
 25 40  1  0  0  0  0
 26 27  1  0  0  0  0
 26 38  1  0  0  0  0
 26 39  1  0  0  0  0
 27 28  2  0  0  0  0
 27 31  1  0  0  0  0
 28 29  1  0  0  0  0
 28 37  1  0  0  0  0
 29 30  2  0  0  0  0
 29 36  1  0  0  0  0
 30 31  1  0  0  0  0
 31 32  1  0  0  0  0
 32 33  1  0  0  0  0
 32 34  1  0  0  0  0
 32 35  1  0  0  0  0
 40 41  2  0  0  0  0
 40 42  1  0  0  0  0
 42 43  2  0  0  0  0
 42 48  1  0  0  0  0
 43 44  1  0  0  0  0
 43 51  1  0  0  0  0
 44 45  2  0  0  0  0
 44 50  1  0  0  0  0
 45 46  1  0  0  0  0
 45 47  1  0  0  0  0
 47 48  2  0  0  0  0
 47 49  1  0  0  0  0
M  END
>  <MODEL>
       1

$$$$
best_conformers_87.pdb
 OpenBabel01292518153D

 59 64  0  0  1  0  0  0  0  0999 V2000
   -6.8560   -5.1550  -22.9460 C   0  0  0  0  0  0  0  0  0  0  0  0
   -7.3950   -3.9710  -22.1510 C   0  0  1  0  0  0  0  0  0  0  0  0
   -6.4100   -3.4480  -21.0960 C   0  0  0  0  0  0  0  0  0  0  0  0
   -6.7610   -2.0490  -20.9620 N   0  0  0  0  0  0  0  0  0  0  0  0
   -6.1610   -1.1980  -20.0060 C   0  0  0  0  0  0  0  0  0  0  0  0
   -6.5280   -1.3050  -18.6900 C   0  0  0  0  0  0  0  0  0  0  0  0
   -6.0340   -0.5390  -17.6880 N   0  0  0  0  0  0  0  0  0  0  0  0
   -5.1190    0.3460  -18.0150 C   0  0  0  0  0  0  0  0  0  0  0  0
   -4.6240    0.5360  -19.3390 C   0  0  0  0  0  0  0  0  0  0  0  0
   -3.6220    1.5000  -19.6310 C   0  0  0  0  0  0  0  0  0  0  0  0
   -3.1450    1.6470  -20.9050 C   0  0  0  0  0  0  0  0  0  0  0  0
   -3.6450    0.8350  -21.9490 C   0  0  0  0  0  0  0  0  0  0  0  0
   -4.6170   -0.0990  -21.6960 C   0  0  0  0  0  0  0  0  0  0  0  0
   -5.1470   -0.2600  -20.3800 C   0  0  0  0  0  0  0  0  0  0  0  0
   -4.9900   -0.7120  -22.5110 H   0  0  0  0  0  0  0  0  0  0  0  0
   -3.2650    0.9620  -22.9590 H   0  0  0  0  0  0  0  0  0  0  0  0
   -2.3870    2.3940  -21.1260 H   0  0  0  0  0  0  0  0  0  0  0  0
   -3.2500    2.1180  -18.8180 H   0  0  0  0  0  0  0  0  0  0  0  0
   -4.7120    0.9620  -17.2130 H   0  0  0  0  0  0  0  0  0  0  0  0
   -7.2860   -2.0340  -18.4040 H   0  0  0  0  0  0  0  0  0  0  0  0
   -7.5070   -1.5520  -22.0050 C   0  0  0  0  0  0  0  0  0  0  0  0
   -7.8380   -0.3910  -22.1090 O   0  0  0  0  0  0  0  0  0  0  0  0
   -7.8150   -2.7040  -22.9790 C   0  0  1  0  0  0  0  0  0  0  0  0
   -7.0310   -2.4380  -24.2740 C   0  0  0  0  0  0  0  0  0  0  0  0
   -7.4490   -3.2820  -25.3800 N   0  0  0  0  0  0  0  0  0  0  0  0
   -6.3940   -3.7110  -26.2920 C   0  0  0  0  0  0  0  0  0  0  0  0
   -5.6520   -2.5660  -26.9270 C   0  0  0  0  0  0  0  0  0  0  0  0
   -4.4410   -1.9720  -26.6240 C   0  0  0  0  0  0  0  0  0  0  0  0
   -4.3530   -0.8750  -27.5050 C   0  0  0  0  0  0  0  0  0  0  0  0
   -5.4160   -0.7960  -28.2910 N   0  0  0  0  0  0  0  0  0  0  0  0
   -6.1910   -1.8250  -27.9260 N   0  0  0  0  0  0  0  0  0  0  0  0
   -7.4530   -2.0350  -28.5940 C   0  0  0  0  0  0  0  0  0  0  0  0
   -7.4110   -1.4910  -29.5360 H   0  0  0  0  0  0  0  0  0  0  0  0
   -7.5910   -3.0990  -28.7810 H   0  0  0  0  0  0  0  0  0  0  0  0
   -8.2900   -1.6710  -27.9940 H   0  0  0  0  0  0  0  0  0  0  0  0
   -3.5780   -0.1260  -27.6070 H   0  0  0  0  0  0  0  0  0  0  0  0
   -3.7470   -2.2920  -25.8540 H   0  0  0  0  0  0  0  0  0  0  0  0
   -6.8690   -4.3660  -27.0260 H   0  0  0  0  0  0  0  0  0  0  0  0
   -5.6690   -4.3070  -25.7230 H   0  0  0  0  0  0  0  0  0  0  0  0
   -8.7630   -3.5350  -25.6630 C   0  0  0  0  0  0  0  0  0  0  0  0
   -9.1460   -4.0370  -26.7120 O   0  0  0  0  0  0  0  0  0  0  0  0
   -9.7280   -3.1830  -24.5750 C   0  0  0  0  0  0  0  0  0  0  0  0
  -11.0850   -3.4140  -24.7890 C   0  0  0  0  0  0  0  0  0  0  0  0
  -11.9860   -3.1890  -23.7700 C   0  0  0  0  0  0  0  0  0  0  0  0
  -11.5450   -2.6580  -22.5730 C   0  0  0  0  0  0  0  0  0  0  0  0
  -12.4810   -2.3690  -21.6570 F   0  0  0  0  0  0  0  0  0  0  0  0
  -10.2050   -2.4550  -22.3130 C   0  0  0  0  0  0  0  0  0  0  0  0
   -9.2810   -2.7530  -23.3230 C   0  0  0  0  0  0  0  0  0  0  0  0
   -9.8750   -2.0520  -21.3600 H   0  0  0  0  0  0  0  0  0  0  0  0
  -13.0350   -3.4310  -23.8230 H   0  0  0  0  0  0  0  0  0  0  0  0
  -11.4010   -3.7820  -25.7550 H   0  0  0  0  0  0  0  0  0  0  0  0
   -5.9660   -2.6140  -24.0960 H   0  0  0  0  0  0  0  0  0  0  0  0
   -7.1760   -1.3780  -24.5280 H   0  0  0  0  0  0  0  0  0  0  0  0
   -5.3700   -3.5630  -21.4370 H   0  0  0  0  0  0  0  0  0  0  0  0
   -6.4920   -3.9490  -20.1290 H   0  0  0  0  0  0  0  0  0  0  0  0
   -8.3160   -4.2880  -21.6380 H   0  0  0  0  0  0  0  0  0  0  0  0
   -6.6560   -6.0060  -22.2910 H   0  0  0  0  0  0  0  0  0  0  0  0
   -7.5630   -5.4770  -23.7150 H   0  0  0  0  0  0  0  0  0  0  0  0
   -5.9120   -4.9010  -23.4410 H   0  0  0  0  0  0  0  0  0  0  0  0
  1  2  1  0  0  0  0
  1 57  1  0  0  0  0
  1 58  1  0  0  0  0
  1 59  1  0  0  0  0
  2  3  1  0  0  0  0
  2 23  1  0  0  0  0
  2 56  1  1  0  0  0
  3  4  1  0  0  0  0
  3 54  1  0  0  0  0
  3 55  1  0  0  0  0
  4  5  1  0  0  0  0
  4 21  1  0  0  0  0
  5  6  2  0  0  0  0
  5 14  1  0  0  0  0
  6  7  1  0  0  0  0
  6 20  1  0  0  0  0
  7  8  2  0  0  0  0
  8  9  1  0  0  0  0
  8 19  1  0  0  0  0
  9 10  2  0  0  0  0
  9 14  1  0  0  0  0
 10 11  1  0  0  0  0
 10 18  1  0  0  0  0
 11 12  2  0  0  0  0
 11 17  1  0  0  0  0
 12 13  1  0  0  0  0
 12 16  1  0  0  0  0
 13 14  2  0  0  0  0
 13 15  1  0  0  0  0
 21 22  2  0  0  0  0
 23 21  1  1  0  0  0
 23 24  1  0  0  0  0
 23 48  1  0  0  0  0
 24 25  1  0  0  0  0
 24 52  1  0  0  0  0
 24 53  1  0  0  0  0
 25 26  1  0  0  0  0
 25 40  1  0  0  0  0
 26 27  1  0  0  0  0
 26 38  1  0  0  0  0
 26 39  1  0  0  0  0
 27 28  2  0  0  0  0
 27 31  1  0  0  0  0
 28 29  1  0  0  0  0
 28 37  1  0  0  0  0
 29 30  2  0  0  0  0
 29 36  1  0  0  0  0
 30 31  1  0  0  0  0
 31 32  1  0  0  0  0
 32 33  1  0  0  0  0
 32 34  1  0  0  0  0
 32 35  1  0  0  0  0
 40 41  2  0  0  0  0
 40 42  1  0  0  0  0
 42 43  2  0  0  0  0
 42 48  1  0  0  0  0
 43 44  1  0  0  0  0
 43 51  1  0  0  0  0
 44 45  2  0  0  0  0
 44 50  1  0  0  0  0
 45 46  1  0  0  0  0
 45 47  1  0  0  0  0
 47 48  2  0  0  0  0
 47 49  1  0  0  0  0
M  END
>  <MODEL>
       2

$$$$
best_conformers_87.pdb
 OpenBabel01292518153D

 59 64  0  0  1  0  0  0  0  0999 V2000
   -6.8780   -5.1550  -22.9410 C   0  0  0  0  0  0  0  0  0  0  0  0
   -7.4210   -3.9730  -22.1420 C   0  0  1  0  0  0  0  0  0  0  0  0
   -6.4250   -3.4470  -21.0940 C   0  0  0  0  0  0  0  0  0  0  0  0
   -6.7720   -2.0450  -20.9610 N   0  0  0  0  0  0  0  0  0  0  0  0
   -6.1710   -1.1900  -20.0060 C   0  0  0  0  0  0  0  0  0  0  0  0
   -6.5320   -1.2960  -18.6880 C   0  0  0  0  0  0  0  0  0  0  0  0
   -6.0260   -0.5350  -17.6880 N   0  0  0  0  0  0  0  0  0  0  0  0
   -5.1110    0.3480  -18.0180 C   0  0  0  0  0  0  0  0  0  0  0  0
   -4.6190    0.5400  -19.3420 C   0  0  0  0  0  0  0  0  0  0  0  0
   -3.6140    1.5010  -19.6360 C   0  0  0  0  0  0  0  0  0  0  0  0
   -3.1420    1.6460  -20.9120 C   0  0  0  0  0  0  0  0  0  0  0  0
   -3.6470    0.8310  -21.9510 C   0  0  0  0  0  0  0  0  0  0  0  0
   -4.6200   -0.1010  -21.6940 C   0  0  0  0  0  0  0  0  0  0  0  0
   -5.1510   -0.2570  -20.3790 C   0  0  0  0  0  0  0  0  0  0  0  0
   -4.9980   -0.7170  -22.5040 H   0  0  0  0  0  0  0  0  0  0  0  0
   -3.2750    0.9590  -22.9630 H   0  0  0  0  0  0  0  0  0  0  0  0
   -2.3860    2.3950  -21.1350 H   0  0  0  0  0  0  0  0  0  0  0  0
   -3.2410    2.1200  -18.8250 H   0  0  0  0  0  0  0  0  0  0  0  0
   -4.7120    0.9630  -17.2130 H   0  0  0  0  0  0  0  0  0  0  0  0
   -7.2830   -2.0280  -18.3930 H   0  0  0  0  0  0  0  0  0  0  0  0
   -7.5400   -1.5580  -21.9920 C   0  0  0  0  0  0  0  0  0  0  0  0
   -7.8870   -0.3970  -22.0940 O   0  0  0  0  0  0  0  0  0  0  0  0
   -7.8590   -2.7060  -22.9650 C   0  0  1  0  0  0  0  0  0  0  0  0
   -7.0650   -2.4280  -24.2570 C   0  0  0  0  0  0  0  0  0  0  0  0
   -7.4850   -3.2340  -25.3930 N   0  0  0  0  0  0  0  0  0  0  0  0
   -6.4860   -3.5700  -26.4020 C   0  0  0  0  0  0  0  0  0  0  0  0
   -5.9640   -4.9820  -26.3100 C   0  0  0  0  0  0  0  0  0  0  0  0
   -6.6200   -6.1650  -26.5710 C   0  0  0  0  0  0  0  0  0  0  0  0
   -5.6840   -7.1800  -26.2670 C   0  0  0  0  0  0  0  0  0  0  0  0
   -4.5280   -6.6590  -25.8740 N   0  0  0  0  0  0  0  0  0  0  0  0
   -4.7110   -5.3300  -25.9200 N   0  0  0  0  0  0  0  0  0  0  0  0
   -3.6400   -4.4430  -25.5290 C   0  0  0  0  0  0  0  0  0  0  0  0
   -3.2800   -3.8540  -26.3820 H   0  0  0  0  0  0  0  0  0  0  0  0
   -4.0160   -3.7630  -24.7560 H   0  0  0  0  0  0  0  0  0  0  0  0
   -2.8420   -5.0740  -25.1370 H   0  0  0  0  0  0  0  0  0  0  0  0
   -5.7780   -8.2640  -26.2940 H   0  0  0  0  0  0  0  0  0  0  0  0
   -7.6420   -6.2210  -26.9240 H   0  0  0  0  0  0  0  0  0  0  0  0
   -6.9780   -3.4510  -27.3700 H   0  0  0  0  0  0  0  0  0  0  0  0
   -5.6800   -2.8300  -26.3280 H   0  0  0  0  0  0  0  0  0  0  0  0
   -8.7940   -3.5320  -25.6580 C   0  0  0  0  0  0  0  0  0  0  0  0
   -9.1440   -4.0650  -26.7060 O   0  0  0  0  0  0  0  0  0  0  0  0
   -9.7650   -3.1880  -24.5660 C   0  0  0  0  0  0  0  0  0  0  0  0
  -11.1270   -3.4020  -24.7830 C   0  0  0  0  0  0  0  0  0  0  0  0
  -12.0290   -3.1750  -23.7520 C   0  0  0  0  0  0  0  0  0  0  0  0
  -11.5810   -2.6810  -22.5390 C   0  0  0  0  0  0  0  0  0  0  0  0
  -12.4860   -2.3880  -21.5940 F   0  0  0  0  0  0  0  0  0  0  0  0
  -10.2440   -2.4860  -22.2930 C   0  0  0  0  0  0  0  0  0  0  0  0
   -9.3260   -2.7470  -23.3110 C   0  0  0  0  0  0  0  0  0  0  0  0
   -9.9180   -2.1590  -21.3150 H   0  0  0  0  0  0  0  0  0  0  0  0
  -13.0860   -3.3940  -23.7990 H   0  0  0  0  0  0  0  0  0  0  0  0
  -11.4440   -3.7350  -25.7700 H   0  0  0  0  0  0  0  0  0  0  0  0
   -7.1990   -1.3520  -24.4620 H   0  0  0  0  0  0  0  0  0  0  0  0
   -6.0010   -2.6410  -24.0880 H   0  0  0  0  0  0  0  0  0  0  0  0
   -6.5010   -3.9470  -20.1240 H   0  0  0  0  0  0  0  0  0  0  0  0
   -5.3870   -3.5640  -21.4430 H   0  0  0  0  0  0  0  0  0  0  0  0
   -8.3380   -4.2860  -21.6220 H   0  0  0  0  0  0  0  0  0  0  0  0
   -6.6920   -6.0140  -22.2870 H   0  0  0  0  0  0  0  0  0  0  0  0
   -5.9290   -4.8900  -23.4190 H   0  0  0  0  0  0  0  0  0  0  0  0
   -7.5820   -5.4610  -23.7220 H   0  0  0  0  0  0  0  0  0  0  0  0
  1  2  1  0  0  0  0
  1 57  1  0  0  0  0
  1 58  1  0  0  0  0
  1 59  1  0  0  0  0
  2  3  1  0  0  0  0
  2 23  1  0  0  0  0
  2 56  1  1  0  0  0
  3  4  1  0  0  0  0
  3 54  1  0  0  0  0
  3 55  1  0  0  0  0
  4  5  1  0  0  0  0
  4 21  1  0  0  0  0
  5  6  2  0  0  0  0
  5 14  1  0  0  0  0
  6  7  1  0  0  0  0
  6 20  1  0  0  0  0
  7  8  2  0  0  0  0
  8  9  1  0  0  0  0
  8 19  1  0  0  0  0
  9 10  2  0  0  0  0
  9 14  1  0  0  0  0
 10 11  1  0  0  0  0
 10 18  1  0  0  0  0
 11 12  2  0  0  0  0
 11 17  1  0  0  0  0
 12 13  1  0  0  0  0
 12 16  1  0  0  0  0
 13 14  2  0  0  0  0
 13 15  1  0  0  0  0
 21 22  2  0  0  0  0
 23 21  1  1  0  0  0
 23 24  1  0  0  0  0
 23 48  1  0  0  0  0
 24 25  1  0  0  0  0
 24 52  1  0  0  0  0
 24 53  1  0  0  0  0
 25 26  1  0  0  0  0
 25 40  1  0  0  0  0
 26 27  1  0  0  0  0
 26 38  1  0  0  0  0
 26 39  1  0  0  0  0
 27 28  2  0  0  0  0
 27 31  1  0  0  0  0
 28 29  1  0  0  0  0
 28 37  1  0  0  0  0
 29 30  2  0  0  0  0
 29 36  1  0  0  0  0
 30 31  1  0  0  0  0
 31 32  1  0  0  0  0
 32 33  1  0  0  0  0
 32 34  1  0  0  0  0
 32 35  1  0  0  0  0
 40 41  2  0  0  0  0
 40 42  1  0  0  0  0
 42 43  2  0  0  0  0
 42 48  1  0  0  0  0
 43 44  1  0  0  0  0
 43 51  1  0  0  0  0
 44 45  2  0  0  0  0
 44 50  1  0  0  0  0
 45 46  1  0  0  0  0
 45 47  1  0  0  0  0
 47 48  2  0  0  0  0
 47 49  1  0  0  0  0
M  END
>  <MODEL>
       3

$$$$
best_conformers_87.pdb
 OpenBabel01292518153D

 59 64  0  0  1  0  0  0  0  0999 V2000
   -6.9870   -5.2240  -22.7980 C   0  0  0  0  0  0  0  0  0  0  0  0
   -7.4220   -3.9700  -22.0580 C   0  0  1  0  0  0  0  0  0  0  0  0
   -6.3570   -3.4520  -21.0890 C   0  0  0  0  0  0  0  0  0  0  0  0
   -6.7160   -2.0560  -20.9510 N   0  0  0  0  0  0  0  0  0  0  0  0
   -6.1380   -1.2030  -19.9940 C   0  0  0  0  0  0  0  0  0  0  0  0
   -6.5260   -1.3100  -18.6860 C   0  0  0  0  0  0  0  0  0  0  0  0
   -6.0440   -0.5450  -17.6790 N   0  0  0  0  0  0  0  0  0  0  0  0
   -5.1310    0.3430  -18.0010 C   0  0  0  0  0  0  0  0  0  0  0  0
   -4.6300    0.5370  -19.3200 C   0  0  0  0  0  0  0  0  0  0  0  0
   -3.6370    1.5090  -19.6040 C   0  0  0  0  0  0  0  0  0  0  0  0
   -3.1510    1.6560  -20.8730 C   0  0  0  0  0  0  0  0  0  0  0  0
   -3.6350    0.8420  -21.9220 C   0  0  0  0  0  0  0  0  0  0  0  0
   -4.6030   -0.0960  -21.6780 C   0  0  0  0  0  0  0  0  0  0  0  0
   -5.1340   -0.2630  -20.3650 C   0  0  0  0  0  0  0  0  0  0  0  0
   -4.9770   -0.7010  -22.4990 H   0  0  0  0  0  0  0  0  0  0  0  0
   -3.2360    0.9640  -22.9240 H   0  0  0  0  0  0  0  0  0  0  0  0
   -2.3850    2.3960  -21.0840 H   0  0  0  0  0  0  0  0  0  0  0  0
   -3.2750    2.1270  -18.7880 H   0  0  0  0  0  0  0  0  0  0  0  0
   -4.7330    0.9620  -17.1970 H   0  0  0  0  0  0  0  0  0  0  0  0
   -7.2870   -2.0430  -18.4200 H   0  0  0  0  0  0  0  0  0  0  0  0
   -7.4740   -1.5600  -21.9840 C   0  0  0  0  0  0  0  0  0  0  0  0
   -7.7600   -0.3890  -22.1350 O   0  0  0  0  0  0  0  0  0  0  0  0
   -7.8400   -2.7150  -22.9150 C   0  0  1  0  0  0  0  0  0  0  0  0
   -7.0720   -2.4940  -24.2320 C   0  0  0  0  0  0  0  0  0  0  0  0
   -7.5300   -3.3970  -25.2630 N   0  0  0  0  0  0  0  0  0  0  0  0
   -6.5760   -4.0160  -26.1570 C   0  0  0  0  0  0  0  0  0  0  0  0
   -6.3060   -3.2060  -27.3880 C   0  0  0  0  0  0  0  0  0  0  0  0
   -6.0600   -1.8610  -27.5980 C   0  0  0  0  0  0  0  0  0  0  0  0
   -5.8790   -1.7560  -28.9900 C   0  0  0  0  0  0  0  0  0  0  0  0
   -5.9980   -2.9310  -29.5930 N   0  0  0  0  0  0  0  0  0  0  0  0
   -6.2470   -3.8030  -28.6060 N   0  0  0  0  0  0  0  0  0  0  0  0
   -6.6090   -5.1750  -28.9160 C   0  0  0  0  0  0  0  0  0  0  0  0
   -5.9390   -5.8800  -28.4140 H   0  0  0  0  0  0  0  0  0  0  0  0
   -6.5030   -5.2870  -29.9930 H   0  0  0  0  0  0  0  0  0  0  0  0
   -7.6450   -5.3840  -28.6160 H   0  0  0  0  0  0  0  0  0  0  0  0
   -5.6740   -0.8710  -29.5810 H   0  0  0  0  0  0  0  0  0  0  0  0
   -6.0440   -1.0560  -26.8710 H   0  0  0  0  0  0  0  0  0  0  0  0
   -5.6400   -4.1710  -25.6080 H   0  0  0  0  0  0  0  0  0  0  0  0
   -6.9520   -5.0120  -26.4190 H   0  0  0  0  0  0  0  0  0  0  0  0
   -8.8610   -3.5620  -25.5430 C   0  0  0  0  0  0  0  0  0  0  0  0
   -9.2590   -4.0420  -26.5920 O   0  0  0  0  0  0  0  0  0  0  0  0
   -9.8060   -3.1730  -24.4550 C   0  0  0  0  0  0  0  0  0  0  0  0
  -11.1760   -3.3760  -24.6310 C   0  0  0  0  0  0  0  0  0  0  0  0
  -12.0580   -3.1240  -23.6000 C   0  0  0  0  0  0  0  0  0  0  0  0
  -11.5700   -2.6160  -22.4080 C   0  0  0  0  0  0  0  0  0  0  0  0
  -12.4530   -2.3810  -21.4300 F   0  0  0  0  0  0  0  0  0  0  0  0
  -10.2240   -2.3890  -22.2170 C   0  0  0  0  0  0  0  0  0  0  0  0
   -9.3190   -2.7120  -23.2320 C   0  0  0  0  0  0  0  0  0  0  0  0
   -9.8730   -1.9840  -21.2780 H   0  0  0  0  0  0  0  0  0  0  0  0
  -13.1170   -3.3280  -23.6720 H   0  0  0  0  0  0  0  0  0  0  0  0
  -11.5250   -3.7600  -25.5820 H   0  0  0  0  0  0  0  0  0  0  0  0
   -7.2160   -1.4420  -24.5250 H   0  0  0  0  0  0  0  0  0  0  0  0
   -5.9970   -2.6310  -24.0860 H   0  0  0  0  0  0  0  0  0  0  0  0
   -6.3740   -3.9470  -20.1140 H   0  0  0  0  0  0  0  0  0  0  0  0
   -5.3400   -3.5800  -21.4980 H   0  0  0  0  0  0  0  0  0  0  0  0
   -8.3130   -4.2050  -21.4630 H   0  0  0  0  0  0  0  0  0  0  0  0
   -7.7580   -5.5410  -23.5040 H   0  0  0  0  0  0  0  0  0  0  0  0
   -6.0620   -5.0320  -23.3540 H   0  0  0  0  0  0  0  0  0  0  0  0
   -6.8010   -6.0420  -22.0900 H   0  0  0  0  0  0  0  0  0  0  0  0
  1  2  1  0  0  0  0
  1 57  1  0  0  0  0
  1 58  1  0  0  0  0
  1 59  1  0  0  0  0
  2  3  1  0  0  0  0
  2 23  1  0  0  0  0
  2 56  1  1  0  0  0
  3  4  1  0  0  0  0
  3 54  1  0  0  0  0
  3 55  1  0  0  0  0
  4  5  1  0  0  0  0
  4 21  1  0  0  0  0
  5  6  2  0  0  0  0
  5 14  1  0  0  0  0
  6  7  1  0  0  0  0
  6 20  1  0  0  0  0
  7  8  2  0  0  0  0
  8  9  1  0  0  0  0
  8 19  1  0  0  0  0
  9 10  2  0  0  0  0
  9 14  1  0  0  0  0
 10 11  1  0  0  0  0
 10 18  1  0  0  0  0
 11 12  2  0  0  0  0
 11 17  1  0  0  0  0
 12 13  1  0  0  0  0
 12 16  1  0  0  0  0
 13 14  2  0  0  0  0
 13 15  1  0  0  0  0
 21 22  2  0  0  0  0
 23 21  1  1  0  0  0
 23 24  1  0  0  0  0
 23 48  1  0  0  0  0
 24 25  1  0  0  0  0
 24 52  1  0  0  0  0
 24 53  1  0  0  0  0
 25 26  1  0  0  0  0
 25 40  1  0  0  0  0
 26 27  1  0  0  0  0
 26 38  1  0  0  0  0
 26 39  1  0  0  0  0
 27 28  2  0  0  0  0
 27 31  1  0  0  0  0
 28 29  1  0  0  0  0
 28 37  1  0  0  0  0
 29 30  2  0  0  0  0
 29 36  1  0  0  0  0
 30 31  1  0  0  0  0
 31 32  1  0  0  0  0
 32 33  1  0  0  0  0
 32 34  1  0  0  0  0
 32 35  1  0  0  0  0
 40 41  2  0  0  0  0
 40 42  1  0  0  0  0
 42 43  2  0  0  0  0
 42 48  1  0  0  0  0
 43 44  1  0  0  0  0
 43 51  1  0  0  0  0
 44 45  2  0  0  0  0
 44 50  1  0  0  0  0
 45 46  1  0  0  0  0
 45 47  1  0  0  0  0
 47 48  2  0  0  0  0
 47 49  1  0  0  0  0
M  END
>  <MODEL>
       4

$$$$
best_conformers_87.pdb
 OpenBabel01292518153D

 59 64  0  0  1  0  0  0  0  0999 V2000
   -6.9000   -4.9610  -23.1660 C   0  0  0  0  0  0  0  0  0  0  0  0
   -7.4460   -3.8690  -22.2490 C   0  0  1  0  0  0  0  0  0  0  0  0
   -6.4150   -3.3860  -21.2180 C   0  0  0  0  0  0  0  0  0  0  0  0
   -6.8130   -2.0220  -20.9510 N   0  0  0  0  0  0  0  0  0  0  0  0
   -6.1720   -1.2020  -19.9980 C   0  0  0  0  0  0  0  0  0  0  0  0
   -6.5310   -1.3110  -18.6820 C   0  0  0  0  0  0  0  0  0  0  0  0
   -6.0290   -0.5460  -17.6810 N   0  0  0  0  0  0  0  0  0  0  0  0
   -5.1190    0.3420  -18.0150 C   0  0  0  0  0  0  0  0  0  0  0  0
   -4.6350    0.5340  -19.3410 C   0  0  0  0  0  0  0  0  0  0  0  0
   -3.6380    1.5000  -19.6390 C   0  0  0  0  0  0  0  0  0  0  0  0
   -3.1700    1.6540  -20.9150 C   0  0  0  0  0  0  0  0  0  0  0  0
   -3.6750    0.8450  -21.9590 C   0  0  0  0  0  0  0  0  0  0  0  0
   -4.6410   -0.0960  -21.7020 C   0  0  0  0  0  0  0  0  0  0  0  0
   -5.1620   -0.2650  -20.3810 C   0  0  0  0  0  0  0  0  0  0  0  0
   -5.0080   -0.7190  -22.5160 H   0  0  0  0  0  0  0  0  0  0  0  0
   -3.2920    0.9770  -22.9700 H   0  0  0  0  0  0  0  0  0  0  0  0
   -2.4100    2.3980  -21.1350 H   0  0  0  0  0  0  0  0  0  0  0  0
   -3.2580    2.1150  -18.8270 H   0  0  0  0  0  0  0  0  0  0  0  0
   -4.6970    0.9570  -17.2180 H   0  0  0  0  0  0  0  0  0  0  0  0
   -7.2940   -2.0350  -18.3980 H   0  0  0  0  0  0  0  0  0  0  0  0
   -7.6240   -1.4810  -21.9160 C   0  0  0  0  0  0  0  0  0  0  0  0
   -7.9800   -0.3210  -21.9430 O   0  0  0  0  0  0  0  0  0  0  0  0
   -7.9710   -2.5790  -22.9370 C   0  0  1  0  0  0  0  0  0  0  0  0
   -7.2320   -2.2930  -24.2660 C   0  0  0  0  0  0  0  0  0  0  0  0
   -7.7470   -1.1180  -24.9440 N   0  0  0  0  0  0  0  0  0  0  0  0
   -6.8020   -0.0440  -25.2460 C   0  0  0  0  0  0  0  0  0  0  0  0
   -5.6980   -0.4850  -26.1530 C   0  0  0  0  0  0  0  0  0  0  0  0
   -4.3720   -0.8020  -25.9200 C   0  0  0  0  0  0  0  0  0  0  0  0
   -3.8840   -1.2410  -27.1640 C   0  0  0  0  0  0  0  0  0  0  0  0
   -4.8230   -1.1930  -28.0960 N   0  0  0  0  0  0  0  0  0  0  0  0
   -5.9160   -0.7320  -27.4720 N   0  0  0  0  0  0  0  0  0  0  0  0
   -7.1280   -0.5730  -28.2460 C   0  0  0  0  0  0  0  0  0  0  0  0
   -7.5680    0.4150  -28.0960 H   0  0  0  0  0  0  0  0  0  0  0  0
   -6.8350   -0.6740  -29.2910 H   0  0  0  0  0  0  0  0  0  0  0  0
   -7.8620   -1.3460  -28.0080 H   0  0  0  0  0  0  0  0  0  0  0  0
   -2.9000   -1.6010  -27.4400 H   0  0  0  0  0  0  0  0  0  0  0  0
   -3.8550   -0.7530  -24.9730 H   0  0  0  0  0  0  0  0  0  0  0  0
   -7.3890    0.7670  -25.6850 H   0  0  0  0  0  0  0  0  0  0  0  0
   -6.3780    0.3270  -24.3000 H   0  0  0  0  0  0  0  0  0  0  0  0
   -9.0880   -0.8470  -25.0010 C   0  0  0  0  0  0  0  0  0  0  0  0
   -9.5350    0.1110  -25.6130 O   0  0  0  0  0  0  0  0  0  0  0  0
   -9.9890   -1.7510  -24.2160 C   0  0  0  0  0  0  0  0  0  0  0  0
  -11.3730   -1.6760  -24.3950 C   0  0  0  0  0  0  0  0  0  0  0  0
  -12.2460   -2.2980  -23.5290 C   0  0  0  0  0  0  0  0  0  0  0  0
  -11.7000   -3.0260  -22.4840 C   0  0  0  0  0  0  0  0  0  0  0  0
  -12.5230   -3.5970  -21.5950 F   0  0  0  0  0  0  0  0  0  0  0  0
  -10.3420   -3.1550  -22.3060 C   0  0  0  0  0  0  0  0  0  0  0  0
   -9.4580   -2.5430  -23.1960 C   0  0  0  0  0  0  0  0  0  0  0  0
   -9.9850   -3.7050  -21.4490 H   0  0  0  0  0  0  0  0  0  0  0  0
  -13.3210   -2.1770  -23.6270 H   0  0  0  0  0  0  0  0  0  0  0  0
  -11.7960   -1.1030  -25.2010 H   0  0  0  0  0  0  0  0  0  0  0  0
   -6.1710   -2.1430  -24.0510 H   0  0  0  0  0  0  0  0  0  0  0  0
   -7.3140   -3.1630  -24.9270 H   0  0  0  0  0  0  0  0  0  0  0  0
   -5.3990   -3.4310  -21.6370 H   0  0  0  0  0  0  0  0  0  0  0  0
   -6.4250   -3.9700  -20.2950 H   0  0  0  0  0  0  0  0  0  0  0  0
   -8.2810   -4.2980  -21.6980 H   0  0  0  0  0  0  0  0  0  0  0  0
   -7.6360   -5.2650  -23.9200 H   0  0  0  0  0  0  0  0  0  0  0  0
   -6.0000   -4.6150  -23.6880 H   0  0  0  0  0  0  0  0  0  0  0  0
   -6.6250   -5.8510  -22.5910 H   0  0  0  0  0  0  0  0  0  0  0  0
  1  2  1  0  0  0  0
  1 57  1  0  0  0  0
  1 58  1  0  0  0  0
  1 59  1  0  0  0  0
  2  3  1  0  0  0  0
  2 23  1  0  0  0  0
  2 56  1  1  0  0  0
  3  4  1  0  0  0  0
  3 54  1  0  0  0  0
  3 55  1  0  0  0  0
  4  5  1  0  0  0  0
  4 21  1  0  0  0  0
  5  6  2  0  0  0  0
  5 14  1  0  0  0  0
  6  7  1  0  0  0  0
  6 20  1  0  0  0  0
  7  8  2  0  0  0  0
  8  9  1  0  0  0  0
  8 19  1  0  0  0  0
  9 10  2  0  0  0  0
  9 14  1  0  0  0  0
 10 11  1  0  0  0  0
 10 18  1  0  0  0  0
 11 12  2  0  0  0  0
 11 17  1  0  0  0  0
 12 13  1  0  0  0  0
 12 16  1  0  0  0  0
 13 14  2  0  0  0  0
 13 15  1  0  0  0  0
 21 22  2  0  0  0  0
 23 21  1  1  0  0  0
 23 24  1  0  0  0  0
 23 48  1  0  0  0  0
 24 25  1  0  0  0  0
 24 52  1  0  0  0  0
 24 53  1  0  0  0  0
 25 26  1  0  0  0  0
 25 40  1  0  0  0  0
 26 27  1  0  0  0  0
 26 38  1  0  0  0  0
 26 39  1  0  0  0  0
 27 28  2  0  0  0  0
 27 31  1  0  0  0  0
 28 29  1  0  0  0  0
 28 37  1  0  0  0  0
 29 30  2  0  0  0  0
 29 36  1  0  0  0  0
 30 31  1  0  0  0  0
 31 32  1  0  0  0  0
 32 33  1  0  0  0  0
 32 34  1  0  0  0  0
 32 35  1  0  0  0  0
 40 41  2  0  0  0  0
 40 42  1  0  0  0  0
 42 43  2  0  0  0  0
 42 48  1  0  0  0  0
 43 44  1  0  0  0  0
 43 51  1  0  0  0  0
 44 45  2  0  0  0  0
 44 50  1  0  0  0  0
 45 46  1  0  0  0  0
 45 47  1  0  0  0  0
 47 48  2  0  0  0  0
 47 49  1  0  0  0  0
M  END
>  <MODEL>
       5

$$$$
