best_conformers_64.pdb
 OpenBabel01292518153D

 55 60  0  0  1  0  0  0  0  0999 V2000
   -6.9960   -5.1950  -22.8750 C   0  0  0  0  0  0  0  0  0  0  0  0
   -7.4960   -3.9770  -22.0970 C   0  0  1  0  0  0  0  0  0  0  0  0
   -6.4780   -3.4550  -21.0680 C   0  0  0  0  0  0  0  0  0  0  0  0
   -6.7810   -2.0400  -20.9670 N   0  0  0  0  0  0  0  0  0  0  0  0
   -6.1760   -1.1880  -20.0100 C   0  0  0  0  0  0  0  0  0  0  0  0
   -6.5320   -1.2950  -18.6910 C   0  0  0  0  0  0  0  0  0  0  0  0
   -6.0230   -0.5330  -17.6890 N   0  0  0  0  0  0  0  0  0  0  0  0
   -5.1090    0.3490  -18.0180 C   0  0  0  0  0  0  0  0  0  0  0  0
   -4.6170    0.5390  -19.3410 C   0  0  0  0  0  0  0  0  0  0  0  0
   -3.6120    1.5020  -19.6370 C   0  0  0  0  0  0  0  0  0  0  0  0
   -3.1410    1.6470  -20.9120 C   0  0  0  0  0  0  0  0  0  0  0  0
   -3.6460    0.8300  -21.9500 C   0  0  0  0  0  0  0  0  0  0  0  0
   -4.6160   -0.1010  -21.6900 C   0  0  0  0  0  0  0  0  0  0  0  0
   -5.1500   -0.2580  -20.3780 C   0  0  0  0  0  0  0  0  0  0  0  0
   -4.9990   -0.7170  -22.4980 H   0  0  0  0  0  0  0  0  0  0  0  0
   -3.2760    0.9570  -22.9630 H   0  0  0  0  0  0  0  0  0  0  0  0
   -2.3850    2.3960  -21.1370 H   0  0  0  0  0  0  0  0  0  0  0  0
   -3.2380    2.1220  -18.8260 H   0  0  0  0  0  0  0  0  0  0  0  0
   -4.7120    0.9650  -17.2100 H   0  0  0  0  0  0  0  0  0  0  0  0
   -7.2820   -2.0230  -18.3870 H   0  0  0  0  0  0  0  0  0  0  0  0
   -7.5400   -1.5520  -22.0030 C   0  0  0  0  0  0  0  0  0  0  0  0
   -7.8500   -0.3840  -22.1280 O   0  0  0  0  0  0  0  0  0  0  0  0
   -7.9040   -2.7180  -22.9440 C   0  0  1  0  0  0  0  0  0  0  0  0
   -7.1290   -2.5120  -24.2540 C   0  0  0  0  0  0  0  0  0  0  0  0
   -7.5930   -3.3530  -25.3510 N   0  0  0  0  0  0  0  0  0  0  0  0
   -6.6260   -3.8070  -26.3470 C   0  0  0  0  0  0  0  0  0  0  0  0
   -6.2970   -5.2710  -26.2580 C   0  0  0  0  0  0  0  0  0  0  0  0
   -5.0900   -5.7530  -25.8360 N   0  0  0  0  0  0  0  0  0  0  0  0
   -5.2560   -7.0590  -25.9130 C   0  0  0  0  0  0  0  0  0  0  0  0
   -6.4880   -7.3420  -26.3620 N   0  0  0  0  0  0  0  0  0  0  0  0
   -7.1710   -6.1970  -26.5970 N   0  0  0  0  0  0  0  0  0  0  0  0
   -6.9390   -8.2300  -26.5290 H   0  0  0  0  0  0  0  0  0  0  0  0
   -4.5390   -7.8170  -25.6400 H   0  0  0  0  0  0  0  0  0  0  0  0
   -5.6980   -3.2510  -26.1970 H   0  0  0  0  0  0  0  0  0  0  0  0
   -7.0450   -3.5950  -27.3360 H   0  0  0  0  0  0  0  0  0  0  0  0
   -8.9210   -3.5530  -25.6150 C   0  0  0  0  0  0  0  0  0  0  0  0
   -9.2970   -4.0520  -26.6690 O   0  0  0  0  0  0  0  0  0  0  0  0
   -9.8580   -3.1490  -24.5110 C   0  0  0  0  0  0  0  0  0  0  0  0
  -11.2290   -3.2900  -24.7240 C   0  0  0  0  0  0  0  0  0  0  0  0
  -12.1130   -2.9970  -23.7010 C   0  0  0  0  0  0  0  0  0  0  0  0
  -11.6230   -2.5290  -22.4940 C   0  0  0  0  0  0  0  0  0  0  0  0
  -12.5300   -2.2150  -21.5650 F   0  0  0  0  0  0  0  0  0  0  0  0
  -10.2760   -2.3970  -22.2380 C   0  0  0  0  0  0  0  0  0  0  0  0
   -9.3790   -2.7180  -23.2650 C   0  0  0  0  0  0  0  0  0  0  0  0
   -9.9350   -2.0730  -21.2580 H   0  0  0  0  0  0  0  0  0  0  0  0
  -13.1850   -3.1080  -23.7370 H   0  0  0  0  0  0  0  0  0  0  0  0
  -11.5570   -3.6340  -25.7010 H   0  0  0  0  0  0  0  0  0  0  0  0
   -7.2250   -1.4430  -24.5000 H   0  0  0  0  0  0  0  0  0  0  0  0
   -6.0710   -2.7560  -24.0860 H   0  0  0  0  0  0  0  0  0  0  0  0
   -6.5550   -3.9190  -20.0810 H   0  0  0  0  0  0  0  0  0  0  0  0
   -5.4460   -3.6220  -21.4150 H   0  0  0  0  0  0  0  0  0  0  0  0
   -8.4210   -4.2500  -21.5710 H   0  0  0  0  0  0  0  0  0  0  0  0
   -6.8200   -6.0390  -22.2000 H   0  0  0  0  0  0  0  0  0  0  0  0
   -6.0540   -4.9800  -23.3940 H   0  0  0  0  0  0  0  0  0  0  0  0
   -7.7210   -5.5080  -23.6340 H   0  0  0  0  0  0  0  0  0  0  0  0
  1  2  1  0  0  0  0
  1 53  1  0  0  0  0
  1 54  1  0  0  0  0
  1 55  1  0  0  0  0
  2  3  1  0  0  0  0
  2 23  1  0  0  0  0
  2 52  1  1  0  0  0
  3  4  1  0  0  0  0
  3 50  1  0  0  0  0
  3 51  1  0  0  0  0
  4  5  1  0  0  0  0
  4 21  1  0  0  0  0
  5  6  2  0  0  0  0
  5 14  1  0  0  0  0
  6  7  1  0  0  0  0
  6 20  1  0  0  0  0
  7  8  2  0  0  0  0
  8  9  1  0  0  0  0
  8 19  1  0  0  0  0
  9 10  2  0  0  0  0
  9 14  1  0  0  0  0
 10 11  1  0  0  0  0
 10 18  1  0  0  0  0
 11 12  2  0  0  0  0
 11 17  1  0  0  0  0
 12 13  1  0  0  0  0
 12 16  1  0  0  0  0
 13 14  2  0  0  0  0
 13 15  1  0  0  0  0
 21 22  2  0  0  0  0
 23 21  1  1  0  0  0
 23 24  1  0  0  0  0
 23 44  1  0  0  0  0
 24 25  1  0  0  0  0
 24 48  1  0  0  0  0
 24 49  1  0  0  0  0
 25 26  1  0  0  0  0
 25 36  1  0  0  0  0
 26 27  1  0  0  0  0
 26 34  1  0  0  0  0
 26 35  1  0  0  0  0
 27 28  1  0  0  0  0
 27 31  2  0  0  0  0
 28 29  2  0  0  0  0
 29 30  1  0  0  0  0
 29 33  1  0  0  0  0
 30 31  1  0  0  0  0
 30 32  1  0  0  0  0
 36 37  2  0  0  0  0
 36 38  1  0  0  0  0
 38 39  2  0  0  0  0
 38 44  1  0  0  0  0
 39 40  1  0  0  0  0
 39 47  1  0  0  0  0
 40 41  2  0  0  0  0
 40 46  1  0  0  0  0
 41 42  1  0  0  0  0
 41 43  1  0  0  0  0
 43 44  2  0  0  0  0
 43 45  1  0  0  0  0
M  END
>  <MODEL>
       1

$$$$
best_conformers_64.pdb
 OpenBabel01292518153D

 55 60  0  0  1  0  0  0  0  0999 V2000
   -6.9910   -5.1950  -22.8790 C   0  0  0  0  0  0  0  0  0  0  0  0
   -7.4900   -3.9780  -22.0970 C   0  0  1  0  0  0  0  0  0  0  0  0
   -6.4700   -3.4560  -21.0680 C   0  0  0  0  0  0  0  0  0  0  0  0
   -6.7750   -2.0410  -20.9650 N   0  0  0  0  0  0  0  0  0  0  0  0
   -6.1740   -1.1890  -20.0080 C   0  0  0  0  0  0  0  0  0  0  0  0
   -6.5340   -1.2950  -18.6890 C   0  0  0  0  0  0  0  0  0  0  0  0
   -6.0260   -0.5360  -17.6890 N   0  0  0  0  0  0  0  0  0  0  0  0
   -5.1110    0.3470  -18.0190 C   0  0  0  0  0  0  0  0  0  0  0  0
   -4.6180    0.5390  -19.3420 C   0  0  0  0  0  0  0  0  0  0  0  0
   -3.6140    1.5000  -19.6370 C   0  0  0  0  0  0  0  0  0  0  0  0
   -3.1410    1.6460  -20.9110 C   0  0  0  0  0  0  0  0  0  0  0  0
   -3.6440    0.8300  -21.9500 C   0  0  0  0  0  0  0  0  0  0  0  0
   -4.6170   -0.1010  -21.6920 C   0  0  0  0  0  0  0  0  0  0  0  0
   -5.1510   -0.2580  -20.3810 C   0  0  0  0  0  0  0  0  0  0  0  0
   -4.9970   -0.7160  -22.5030 H   0  0  0  0  0  0  0  0  0  0  0  0
   -3.2730    0.9580  -22.9630 H   0  0  0  0  0  0  0  0  0  0  0  0
   -2.3850    2.3960  -21.1330 H   0  0  0  0  0  0  0  0  0  0  0  0
   -3.2430    2.1190  -18.8240 H   0  0  0  0  0  0  0  0  0  0  0  0
   -4.7140    0.9620  -17.2120 H   0  0  0  0  0  0  0  0  0  0  0  0
   -7.2840   -2.0270  -18.3910 H   0  0  0  0  0  0  0  0  0  0  0  0
   -7.5330   -1.5520  -22.0010 C   0  0  0  0  0  0  0  0  0  0  0  0
   -7.8470   -0.3830  -22.1260 O   0  0  0  0  0  0  0  0  0  0  0  0
   -7.8960   -2.7150  -22.9410 C   0  0  1  0  0  0  0  0  0  0  0  0
   -7.1130   -2.5080  -24.2490 C   0  0  0  0  0  0  0  0  0  0  0  0
   -7.5720   -3.3540  -25.3440 N   0  0  0  0  0  0  0  0  0  0  0  0
   -6.5940   -3.7920  -26.3330 C   0  0  0  0  0  0  0  0  0  0  0  0
   -6.2360   -5.2470  -26.2330 C   0  0  0  0  0  0  0  0  0  0  0  0
   -7.1130   -6.2350  -26.5590 N   0  0  0  0  0  0  0  0  0  0  0  0
   -6.4170   -7.3280  -26.3310 C   0  0  0  0  0  0  0  0  0  0  0  0
   -5.1820   -7.0170  -25.9110 N   0  0  0  0  0  0  0  0  0  0  0  0
   -5.0450   -5.6720  -25.8470 N   0  0  0  0  0  0  0  0  0  0  0  0
   -4.4340   -7.6250  -25.6150 H   0  0  0  0  0  0  0  0  0  0  0  0
   -6.7740   -8.3380  -26.4460 H   0  0  0  0  0  0  0  0  0  0  0  0
   -5.6880   -3.1910  -26.2000 H   0  0  0  0  0  0  0  0  0  0  0  0
   -7.0330   -3.6310  -27.3220 H   0  0  0  0  0  0  0  0  0  0  0  0
   -8.9000   -3.5460  -25.6200 C   0  0  0  0  0  0  0  0  0  0  0  0
   -9.2830   -4.0260  -26.6800 O   0  0  0  0  0  0  0  0  0  0  0  0
   -9.8390   -3.1530  -24.5170 C   0  0  0  0  0  0  0  0  0  0  0  0
  -11.2080   -3.3060  -24.7300 C   0  0  0  0  0  0  0  0  0  0  0  0
  -12.0900   -3.0150  -23.7020 C   0  0  0  0  0  0  0  0  0  0  0  0
  -11.6110   -2.5410  -22.4950 C   0  0  0  0  0  0  0  0  0  0  0  0
  -12.5150   -2.2230  -21.5610 F   0  0  0  0  0  0  0  0  0  0  0  0
  -10.2680   -2.4010  -22.2460 C   0  0  0  0  0  0  0  0  0  0  0  0
   -9.3700   -2.7150  -23.2700 C   0  0  0  0  0  0  0  0  0  0  0  0
   -9.9200   -2.0720  -21.2730 H   0  0  0  0  0  0  0  0  0  0  0  0
  -13.1620   -3.1460  -23.7360 H   0  0  0  0  0  0  0  0  0  0  0  0
  -11.5380   -3.6480  -25.7070 H   0  0  0  0  0  0  0  0  0  0  0  0
   -7.2190   -1.4390  -24.4970 H   0  0  0  0  0  0  0  0  0  0  0  0
   -6.0560   -2.7510  -24.0810 H   0  0  0  0  0  0  0  0  0  0  0  0
   -5.4390   -3.6110  -21.4230 H   0  0  0  0  0  0  0  0  0  0  0  0
   -6.5450   -3.9210  -20.0800 H   0  0  0  0  0  0  0  0  0  0  0  0
   -8.4160   -4.2480  -21.5690 H   0  0  0  0  0  0  0  0  0  0  0  0
   -6.8130   -6.0410  -22.2060 H   0  0  0  0  0  0  0  0  0  0  0  0
   -6.0500   -4.9750  -23.3940 H   0  0  0  0  0  0  0  0  0  0  0  0
   -7.7160   -5.5070  -23.6380 H   0  0  0  0  0  0  0  0  0  0  0  0
  1  2  1  0  0  0  0
  1 53  1  0  0  0  0
  1 54  1  0  0  0  0
  1 55  1  0  0  0  0
  2  3  1  0  0  0  0
  2 23  1  0  0  0  0
  2 52  1  1  0  0  0
  3  4  1  0  0  0  0
  3 50  1  0  0  0  0
  3 51  1  0  0  0  0
  4  5  1  0  0  0  0
  4 21  1  0  0  0  0
  5  6  2  0  0  0  0
  5 14  1  0  0  0  0
  6  7  1  0  0  0  0
  6 20  1  0  0  0  0
  7  8  2  0  0  0  0
  8  9  1  0  0  0  0
  8 19  1  0  0  0  0
  9 10  2  0  0  0  0
  9 14  1  0  0  0  0
 10 11  1  0  0  0  0
 10 18  1  0  0  0  0
 11 12  2  0  0  0  0
 11 17  1  0  0  0  0
 12 13  1  0  0  0  0
 12 16  1  0  0  0  0
 13 14  2  0  0  0  0
 13 15  1  0  0  0  0
 21 22  2  0  0  0  0
 23 21  1  1  0  0  0
 23 24  1  0  0  0  0
 23 44  1  0  0  0  0
 24 25  1  0  0  0  0
 24 48  1  0  0  0  0
 24 49  1  0  0  0  0
 25 26  1  0  0  0  0
 25 36  1  0  0  0  0
 26 27  1  0  0  0  0
 26 34  1  0  0  0  0
 26 35  1  0  0  0  0
 27 28  1  0  0  0  0
 27 31  2  0  0  0  0
 28 29  2  0  0  0  0
 29 30  1  0  0  0  0
 29 33  1  0  0  0  0
 30 31  1  0  0  0  0
 30 32  1  0  0  0  0
 36 37  2  0  0  0  0
 36 38  1  0  0  0  0
 38 39  2  0  0  0  0
 38 44  1  0  0  0  0
 39 40  1  0  0  0  0
 39 47  1  0  0  0  0
 40 41  2  0  0  0  0
 40 46  1  0  0  0  0
 41 42  1  0  0  0  0
 41 43  1  0  0  0  0
 43 44  2  0  0  0  0
 43 45  1  0  0  0  0
M  END
>  <MODEL>
       2

$$$$
best_conformers_64.pdb
 OpenBabel01292518153D

 55 60  0  0  1  0  0  0  0  0999 V2000
   -6.9900   -5.2010  -22.8660 C   0  0  0  0  0  0  0  0  0  0  0  0
   -7.4880   -3.9750  -22.0980 C   0  0  1  0  0  0  0  0  0  0  0  0
   -6.4730   -3.4540  -21.0670 C   0  0  0  0  0  0  0  0  0  0  0  0
   -6.7790   -2.0400  -20.9640 N   0  0  0  0  0  0  0  0  0  0  0  0
   -6.1760   -1.1870  -20.0110 C   0  0  0  0  0  0  0  0  0  0  0  0
   -6.5320   -1.2950  -18.6910 C   0  0  0  0  0  0  0  0  0  0  0  0
   -6.0240   -0.5350  -17.6910 N   0  0  0  0  0  0  0  0  0  0  0  0
   -5.1100    0.3490  -18.0180 C   0  0  0  0  0  0  0  0  0  0  0  0
   -4.6170    0.5380  -19.3410 C   0  0  0  0  0  0  0  0  0  0  0  0
   -3.6130    1.5000  -19.6360 C   0  0  0  0  0  0  0  0  0  0  0  0
   -3.1400    1.6470  -20.9110 C   0  0  0  0  0  0  0  0  0  0  0  0
   -3.6440    0.8310  -21.9500 C   0  0  0  0  0  0  0  0  0  0  0  0
   -4.6150   -0.1030  -21.6900 C   0  0  0  0  0  0  0  0  0  0  0  0
   -5.1490   -0.2590  -20.3790 C   0  0  0  0  0  0  0  0  0  0  0  0
   -4.9980   -0.7160  -22.5000 H   0  0  0  0  0  0  0  0  0  0  0  0
   -3.2740    0.9570  -22.9640 H   0  0  0  0  0  0  0  0  0  0  0  0
   -2.3840    2.3960  -21.1360 H   0  0  0  0  0  0  0  0  0  0  0  0
   -3.2400    2.1210  -18.8250 H   0  0  0  0  0  0  0  0  0  0  0  0
   -4.7130    0.9640  -17.2100 H   0  0  0  0  0  0  0  0  0  0  0  0
   -7.2820   -2.0230  -18.3870 H   0  0  0  0  0  0  0  0  0  0  0  0
   -7.5260   -1.5480  -22.0080 C   0  0  0  0  0  0  0  0  0  0  0  0
   -7.8350   -0.3790  -22.1280 O   0  0  0  0  0  0  0  0  0  0  0  0
   -7.8810   -2.7110  -22.9470 C   0  0  1  0  0  0  0  0  0  0  0  0
   -7.0990   -2.5310  -24.2570 C   0  0  0  0  0  0  0  0  0  0  0  0
   -7.5340   -3.4450  -25.2990 N   0  0  0  0  0  0  0  0  0  0  0  0
   -6.5450   -3.8870  -26.2690 C   0  0  0  0  0  0  0  0  0  0  0  0
   -6.2550   -2.8890  -27.3460 C   0  0  0  0  0  0  0  0  0  0  0  0
   -5.3580   -1.8580  -27.2220 N   0  0  0  0  0  0  0  0  0  0  0  0
   -5.4700   -1.2420  -28.3810 C   0  0  0  0  0  0  0  0  0  0  0  0
   -6.3630   -1.8790  -29.1610 N   0  0  0  0  0  0  0  0  0  0  0  0
   -6.8660   -2.9410  -28.5050 N   0  0  0  0  0  0  0  0  0  0  0  0
   -6.7170   -1.6570  -30.0800 H   0  0  0  0  0  0  0  0  0  0  0  0
   -4.9540   -0.3430  -28.6880 H   0  0  0  0  0  0  0  0  0  0  0  0
   -5.6110   -4.0580  -25.7310 H   0  0  0  0  0  0  0  0  0  0  0  0
   -6.9130   -4.8130  -26.7210 H   0  0  0  0  0  0  0  0  0  0  0  0
   -8.8600   -3.5870  -25.6140 C   0  0  0  0  0  0  0  0  0  0  0  0
   -9.2400   -4.0870  -26.6610 O   0  0  0  0  0  0  0  0  0  0  0  0
   -9.8030   -3.1330  -24.5380 C   0  0  0  0  0  0  0  0  0  0  0  0
  -11.1730   -3.2590  -24.7640 C   0  0  0  0  0  0  0  0  0  0  0  0
  -12.0590   -2.9700  -23.7420 C   0  0  0  0  0  0  0  0  0  0  0  0
  -11.5920   -2.5090  -22.5300 C   0  0  0  0  0  0  0  0  0  0  0  0
  -12.5050   -2.1800  -21.6100 F   0  0  0  0  0  0  0  0  0  0  0  0
  -10.2520   -2.3860  -22.2760 C   0  0  0  0  0  0  0  0  0  0  0  0
   -9.3450   -2.7020  -23.2880 C   0  0  0  0  0  0  0  0  0  0  0  0
   -9.9150   -2.0710  -21.3010 H   0  0  0  0  0  0  0  0  0  0  0  0
  -13.1310   -3.1010  -23.7560 H   0  0  0  0  0  0  0  0  0  0  0  0
  -11.5110   -3.5940  -25.7380 H   0  0  0  0  0  0  0  0  0  0  0  0
   -6.0320   -2.7120  -24.0950 H   0  0  0  0  0  0  0  0  0  0  0  0
   -7.2350   -1.4860  -24.5700 H   0  0  0  0  0  0  0  0  0  0  0  0
   -5.4390   -3.6220  -21.4090 H   0  0  0  0  0  0  0  0  0  0  0  0
   -6.5480   -3.9180  -20.0810 H   0  0  0  0  0  0  0  0  0  0  0  0
   -8.4190   -4.2400  -21.5810 H   0  0  0  0  0  0  0  0  0  0  0  0
   -7.7170   -5.5210  -23.6170 H   0  0  0  0  0  0  0  0  0  0  0  0
   -6.0560   -4.9800  -23.3960 H   0  0  0  0  0  0  0  0  0  0  0  0
   -6.7960   -6.0430  -22.1920 H   0  0  0  0  0  0  0  0  0  0  0  0
  1  2  1  0  0  0  0
  1 53  1  0  0  0  0
  1 54  1  0  0  0  0
  1 55  1  0  0  0  0
  2  3  1  0  0  0  0
  2 23  1  0  0  0  0
  2 52  1  1  0  0  0
  3  4  1  0  0  0  0
  3 50  1  0  0  0  0
  3 51  1  0  0  0  0
  4  5  1  0  0  0  0
  4 21  1  0  0  0  0
  5  6  2  0  0  0  0
  5 14  1  0  0  0  0
  6  7  1  0  0  0  0
  6 20  1  0  0  0  0
  7  8  2  0  0  0  0
  8  9  1  0  0  0  0
  8 19  1  0  0  0  0
  9 10  2  0  0  0  0
  9 14  1  0  0  0  0
 10 11  1  0  0  0  0
 10 18  1  0  0  0  0
 11 12  2  0  0  0  0
 11 17  1  0  0  0  0
 12 13  1  0  0  0  0
 12 16  1  0  0  0  0
 13 14  2  0  0  0  0
 13 15  1  0  0  0  0
 21 22  2  0  0  0  0
 23 21  1  1  0  0  0
 23 24  1  0  0  0  0
 23 44  1  0  0  0  0
 24 25  1  0  0  0  0
 24 48  1  0  0  0  0
 24 49  1  0  0  0  0
 25 26  1  0  0  0  0
 25 36  1  0  0  0  0
 26 27  1  0  0  0  0
 26 34  1  0  0  0  0
 26 35  1  0  0  0  0
 27 28  1  0  0  0  0
 27 31  2  0  0  0  0
 28 29  2  0  0  0  0
 29 30  1  0  0  0  0
 29 33  1  0  0  0  0
 30 31  1  0  0  0  0
 30 32  1  0  0  0  0
 36 37  2  0  0  0  0
 36 38  1  0  0  0  0
 38 39  2  0  0  0  0
 38 44  1  0  0  0  0
 39 40  1  0  0  0  0
 39 47  1  0  0  0  0
 40 41  2  0  0  0  0
 40 46  1  0  0  0  0
 41 42  1  0  0  0  0
 41 43  1  0  0  0  0
 43 44  2  0  0  0  0
 43 45  1  0  0  0  0
M  END
>  <MODEL>
       3

$$$$
