best_conformers_25.pdb
 OpenBabel01292518153D

 70 75  0  0  1  0  0  0  0  0999 V2000
   -5.1220   -2.5300  -26.8610 O   0  0  0  0  0  0  0  0  0  0  0  0
   -4.7070   -2.7300  -25.7340 C   0  0  0  0  0  0  0  0  0  0  0  0
   -5.1170   -3.9620  -24.9350 C   0  0  0  0  0  0  0  0  0  0  0  0
   -6.2160   -3.6060  -23.9760 N   0  3  1  0  0  0  0  0  0  0  0  0
   -7.5190   -3.2340  -24.7340 C   0  0  0  0  0  0  0  0  0  0  0  0
   -8.6870   -2.9780  -23.8060 C   0  0  0  0  0  0  0  0  0  0  0  0
   -9.7970   -2.2700  -24.2780 C   0  0  0  0  0  0  0  0  0  0  0  0
  -10.9460   -2.1300  -23.5060 C   0  0  0  0  0  0  0  0  0  0  0  0
  -11.0010   -2.7500  -22.2620 C   0  0  0  0  0  0  0  0  0  0  0  0
  -12.5370   -2.8100  -21.4220 Cl  0  0  0  0  0  0  0  0  0  0  0  0
   -9.8750   -3.3790  -21.7410 C   0  0  0  0  0  0  0  0  0  0  0  0
   -8.7080   -3.4910  -22.5060 C   0  0  0  0  0  0  0  0  0  0  0  0
   -7.4980   -4.2030  -21.9250 C   0  0  2  0  0  0  0  0  0  0  0  0
   -6.7010   -3.4290  -20.8720 C   0  0  0  0  0  0  0  0  0  0  0  0
   -6.0790   -4.0040  -19.9930 O   0  0  0  0  0  0  0  0  0  0  0  0
   -6.6700   -2.0670  -21.0200 N   0  0  0  0  0  0  0  0  0  0  0  0
   -6.1360   -1.2160  -20.0210 C   0  0  0  0  0  0  0  0  0  0  0  0
   -6.5210   -1.3090  -18.7030 C   0  0  0  0  0  0  0  0  0  0  0  0
   -6.0370   -0.5300  -17.7030 N   0  0  0  0  0  0  0  0  0  0  0  0
   -5.1160    0.3540  -18.0210 C   0  0  0  0  0  0  0  0  0  0  0  0
   -4.6240    0.5500  -19.3430 C   0  0  0  0  0  0  0  0  0  0  0  0
   -3.6340    1.5210  -19.6470 C   0  0  0  0  0  0  0  0  0  0  0  0
   -3.1940    1.6840  -20.9340 C   0  0  0  0  0  0  0  0  0  0  0  0
   -3.7150    0.8840  -21.9790 C   0  0  0  0  0  0  0  0  0  0  0  0
   -4.6680   -0.0680  -21.7070 C   0  0  0  0  0  0  0  0  0  0  0  0
   -5.1470   -0.2490  -20.3820 C   0  0  0  0  0  0  0  0  0  0  0  0
   -5.0630   -0.6860  -22.5100 H   0  0  0  0  0  0  0  0  0  0  0  0
   -3.3700    1.0130  -23.0040 H   0  0  0  0  0  0  0  0  0  0  0  0
   -2.4470    2.4420  -21.1490 H   0  0  0  0  0  0  0  0  0  0  0  0
   -3.2480    2.1310  -18.8360 H   0  0  0  0  0  0  0  0  0  0  0  0
   -4.7130    0.9630  -17.2120 H   0  0  0  0  0  0  0  0  0  0  0  0
   -7.2740   -2.0290  -18.3940 H   0  0  0  0  0  0  0  0  0  0  0  0
   -7.1610   -1.6570  -21.8060 H   0  0  0  0  0  0  0  0  0  0  0  0
   -6.5290   -4.7010  -22.9940 C   0  0  0  0  0  0  0  0  0  0  0  0
   -5.6210   -5.0630  -22.5050 H   0  0  0  0  0  0  0  0  0  0  0  0
   -6.9930   -5.5300  -23.5400 H   0  0  0  0  0  0  0  0  0  0  0  0
   -7.8010   -5.1220  -21.4340 H   0  0  0  0  0  0  0  0  0  0  0  0
   -9.8860   -3.7940  -20.7410 H   0  0  0  0  0  0  0  0  0  0  0  0
  -11.8040   -1.5650  -23.8580 H   0  0  0  0  0  0  0  0  0  0  0  0
   -9.7770   -1.8580  -25.2860 H   0  0  0  0  0  0  0  0  0  0  0  0
   -7.3290   -2.3490  -25.3420 H   0  0  0  0  0  0  0  0  0  0  0  0
   -7.7400   -4.0670  -25.4210 H   0  0  0  0  0  0  0  0  0  0  0  0
   -5.9120   -2.7740  -23.4200 H   0  0  0  0  0  0  0  0  0  0  0  0
   -5.4620   -4.7230  -25.6390 H   0  0  0  0  0  0  0  0  0  0  0  0
   -4.2880   -4.3810  -24.3620 H   0  0  0  0  0  0  0  0  0  0  0  0
   -3.8910   -1.8530  -25.0580 N   0  0  0  0  0  0  0  0  0  0  0  0
   -3.6100   -0.5390  -25.5110 C   0  0  0  0  0  0  0  0  0  0  0  0
   -2.3470    0.0440  -25.3490 C   0  0  0  0  0  0  0  0  0  0  0  0
   -2.1200    1.3600  -25.7510 C   0  0  0  0  0  0  0  0  0  0  0  0
   -3.1500    2.1250  -26.3110 C   0  0  0  0  0  0  0  0  0  0  0  0
   -2.9440    3.4910  -26.6940 N   0  0  0  0  0  0  0  0  0  0  0  0
   -3.7580    4.5170  -26.0420 C   0  0  0  0  0  0  0  0  0  0  0  0
   -3.5890    5.8640  -26.7310 C   0  0  0  0  0  0  0  0  0  0  0  0
   -2.2200    6.1460  -26.8870 O   0  0  0  0  0  0  0  0  0  0  0  0
   -1.6440    5.2680  -27.8180 C   0  0  0  0  0  0  0  0  0  0  0  0
   -1.8820    3.7890  -27.5140 C   0  0  0  0  0  0  0  0  0  0  0  0
   -1.1750    2.9390  -28.0270 O   0  0  0  0  0  0  0  0  0  0  0  0
   -0.5650    5.4440  -27.8100 H   0  0  0  0  0  0  0  0  0  0  0  0
   -2.0350    5.4630  -28.8320 H   0  0  0  0  0  0  0  0  0  0  0  0
   -4.0870    5.8780  -27.7130 H   0  0  0  0  0  0  0  0  0  0  0  0
   -4.0130    6.6660  -26.1160 H   0  0  0  0  0  0  0  0  0  0  0  0
   -3.4480    4.6010  -24.9920 H   0  0  0  0  0  0  0  0  0  0  0  0
   -4.8090    4.2100  -26.0730 H   0  0  0  0  0  0  0  0  0  0  0  0
   -4.4110    1.5410  -26.4590 C   0  0  0  0  0  0  0  0  0  0  0  0
   -4.6300    0.2180  -26.0880 C   0  0  0  0  0  0  0  0  0  0  0  0
   -5.6130   -0.2210  -26.2230 H   0  0  0  0  0  0  0  0  0  0  0  0
   -5.2290    2.1190  -26.8900 H   0  0  0  0  0  0  0  0  0  0  0  0
   -1.1290    1.7890  -25.6210 H   0  0  0  0  0  0  0  0  0  0  0  0
   -1.5330   -0.5280  -24.9090 H   0  0  0  0  0  0  0  0  0  0  0  0
   -3.3640   -2.2250  -24.2820 H   0  0  0  0  0  0  0  0  0  0  0  0
  1  2  2  0  0  0  0
  2  3  1  0  0  0  0
  2 46  1  0  0  0  0
  3  4  1  0  0  0  0
  3 44  1  0  0  0  0
  3 45  1  0  0  0  0
  4  5  1  0  0  0  0
  4 34  1  0  0  0  0
  4 43  1  1  0  0  0
  5  6  1  0  0  0  0
  5 41  1  0  0  0  0
  5 42  1  0  0  0  0
  6  7  2  0  0  0  0
  6 12  1  0  0  0  0
  7  8  1  0  0  0  0
  7 40  1  0  0  0  0
  8  9  2  0  0  0  0
  8 39  1  0  0  0  0
  9 10  1  0  0  0  0
  9 11  1  0  0  0  0
 11 12  2  0  0  0  0
 11 38  1  0  0  0  0
 12 13  1  0  0  0  0
 13 14  1  0  0  0  0
 13 34  1  0  0  0  0
 13 37  1  1  0  0  0
 14 15  2  0  0  0  0
 14 16  1  0  0  0  0
 16 17  1  0  0  0  0
 16 33  1  0  0  0  0
 17 18  2  0  0  0  0
 17 26  1  0  0  0  0
 18 19  1  0  0  0  0
 18 32  1  0  0  0  0
 19 20  2  0  0  0  0
 20 21  1  0  0  0  0
 20 31  1  0  0  0  0
 21 22  2  0  0  0  0
 21 26  1  0  0  0  0
 22 23  1  0  0  0  0
 22 30  1  0  0  0  0
 23 24  2  0  0  0  0
 23 29  1  0  0  0  0
 24 25  1  0  0  0  0
 24 28  1  0  0  0  0
 25 26  2  0  0  0  0
 25 27  1  0  0  0  0
 34 35  1  0  0  0  0
 34 36  1  0  0  0  0
 46 47  1  0  0  0  0
 46 70  1  0  0  0  0
 47 48  2  0  0  0  0
 47 65  1  0  0  0  0
 48 49  1  0  0  0  0
 48 69  1  0  0  0  0
 49 50  2  0  0  0  0
 49 68  1  0  0  0  0
 50 51  1  0  0  0  0
 50 64  1  0  0  0  0
 51 52  1  0  0  0  0
 51 56  1  0  0  0  0
 52 53  1  0  0  0  0
 52 62  1  0  0  0  0
 52 63  1  0  0  0  0
 53 54  1  0  0  0  0
 53 60  1  0  0  0  0
 53 61  1  0  0  0  0
 54 55  1  0  0  0  0
 55 56  1  0  0  0  0
 55 58  1  0  0  0  0
 55 59  1  0  0  0  0
 56 57  2  0  0  0  0
 64 65  2  0  0  0  0
 64 67  1  0  0  0  0
 65 66  1  0  0  0  0
M  CHG  1   4   1
M  END
>  <MODEL>
       1

$$$$
best_conformers_25.pdb
 OpenBabel01292518153D

 70 75  0  0  1  0  0  0  0  0999 V2000
   -3.8640   -8.6720  -24.5440 O   0  0  0  0  0  0  0  0  0  0  0  0
   -3.7080   -7.7440  -23.7700 C   0  0  0  0  0  0  0  0  0  0  0  0
   -4.8760   -7.1890  -22.9400 C   0  0  0  0  0  0  0  0  0  0  0  0
   -5.2560   -5.7540  -23.2160 N   0  3  1  0  0  0  0  0  0  0  0  0
   -5.4640   -5.5760  -24.7140 C   0  0  0  0  0  0  0  0  0  0  0  0
   -5.8760   -4.1730  -25.0700 C   0  0  0  0  0  0  0  0  0  0  0  0
   -5.6260   -3.6740  -26.3470 C   0  0  0  0  0  0  0  0  0  0  0  0
   -6.0010   -2.3860  -26.6980 C   0  0  0  0  0  0  0  0  0  0  0  0
   -6.6340   -1.5860  -25.7530 C   0  0  0  0  0  0  0  0  0  0  0  0
   -7.0990    0.0360  -26.1740 Cl  0  0  0  0  0  0  0  0  0  0  0  0
   -6.8890   -2.0630  -24.4780 C   0  0  0  0  0  0  0  0  0  0  0  0
   -6.5240   -3.3690  -24.1360 C   0  0  0  0  0  0  0  0  0  0  0  0
   -6.8250   -3.8600  -22.7360 C   0  0  2  0  0  0  0  0  0  0  0  0
   -5.9850   -3.1010  -21.7130 C   0  0  0  0  0  0  0  0  0  0  0  0
   -4.8160   -3.4000  -21.5240 O   0  0  0  0  0  0  0  0  0  0  0  0
   -6.6610   -2.1070  -21.0280 N   0  0  0  0  0  0  0  0  0  0  0  0
   -6.1030   -1.2570  -20.0400 C   0  0  0  0  0  0  0  0  0  0  0  0
   -6.5380   -1.3160  -18.7360 C   0  0  0  0  0  0  0  0  0  0  0  0
   -6.0490   -0.5560  -17.7240 N   0  0  0  0  0  0  0  0  0  0  0  0
   -5.1180    0.3210  -18.0220 C   0  0  0  0  0  0  0  0  0  0  0  0
   -4.6180    0.5210  -19.3390 C   0  0  0  0  0  0  0  0  0  0  0  0
   -3.6350    1.5030  -19.6280 C   0  0  0  0  0  0  0  0  0  0  0  0
   -3.2020    1.6970  -20.9130 C   0  0  0  0  0  0  0  0  0  0  0  0
   -3.7350    0.9240  -21.9700 C   0  0  0  0  0  0  0  0  0  0  0  0
   -4.6830   -0.0380  -21.7210 C   0  0  0  0  0  0  0  0  0  0  0  0
   -5.1300   -0.2730  -20.3890 C   0  0  0  0  0  0  0  0  0  0  0  0
   -5.1080   -0.6160  -22.5400 H   0  0  0  0  0  0  0  0  0  0  0  0
   -3.3990    1.0970  -22.9880 H   0  0  0  0  0  0  0  0  0  0  0  0
   -2.4500    2.4520  -21.1340 H   0  0  0  0  0  0  0  0  0  0  0  0
   -3.2480    2.1050  -18.8120 H   0  0  0  0  0  0  0  0  0  0  0  0
   -4.7160    0.9370  -17.2140 H   0  0  0  0  0  0  0  0  0  0  0  0
   -7.3040   -2.0340  -18.4370 H   0  0  0  0  0  0  0  0  0  0  0  0
   -7.6660   -2.2100  -20.9930 H   0  0  0  0  0  0  0  0  0  0  0  0
   -6.5520   -5.3510  -22.5230 C   0  0  0  0  0  0  0  0  0  0  0  0
   -7.3660   -5.9560  -22.9310 H   0  0  0  0  0  0  0  0  0  0  0  0
   -6.4640   -5.5480  -21.4520 H   0  0  0  0  0  0  0  0  0  0  0  0
   -7.8700   -3.6370  -22.5010 H   0  0  0  0  0  0  0  0  0  0  0  0
   -7.3590   -1.4100  -23.7490 H   0  0  0  0  0  0  0  0  0  0  0  0
   -5.8020   -2.0020  -27.6920 H   0  0  0  0  0  0  0  0  0  0  0  0
   -5.1280   -4.3060  -27.0790 H   0  0  0  0  0  0  0  0  0  0  0  0
   -4.5480   -5.8540  -25.2350 H   0  0  0  0  0  0  0  0  0  0  0  0
   -6.2360   -6.3000  -24.9980 H   0  0  0  0  0  0  0  0  0  0  0  0
   -4.5400   -5.0730  -22.8720 H   0  0  0  0  0  0  0  0  0  0  0  0
   -4.6340   -7.3280  -21.8820 H   0  0  0  0  0  0  0  0  0  0  0  0
   -5.7090   -7.8510  -23.1930 H   0  0  0  0  0  0  0  0  0  0  0  0
   -2.5020   -7.1170  -23.5820 N   0  0  0  0  0  0  0  0  0  0  0  0
   -1.3580   -7.3550  -24.3860 C   0  0  0  0  0  0  0  0  0  0  0  0
   -0.0820   -7.3530  -23.8150 C   0  0  0  0  0  0  0  0  0  0  0  0
    1.0370   -7.5980  -24.6000 C   0  0  0  0  0  0  0  0  0  0  0  0
    0.8950   -7.7880  -25.9760 C   0  0  0  0  0  0  0  0  0  0  0  0
    2.0260   -8.0260  -26.8010 N   0  0  0  0  0  0  0  0  0  0  0  0
    2.0950   -7.3700  -28.1040 C   0  0  0  0  0  0  0  0  0  0  0  0
    3.5290   -7.3380  -28.5990 C   0  0  0  0  0  0  0  0  0  0  0  0
    4.0550   -8.6450  -28.5720 O   0  0  0  0  0  0  0  0  0  0  0  0
    4.1800   -9.1110  -27.2550 C   0  0  0  0  0  0  0  0  0  0  0  0
    2.9170   -9.0020  -26.4180 C   0  0  0  0  0  0  0  0  0  0  0  0
    2.7670   -9.6980  -25.4320 O   0  0  0  0  0  0  0  0  0  0  0  0
    4.4670  -10.1620  -27.2900 H   0  0  0  0  0  0  0  0  0  0  0  0
    4.9580   -8.5590  -26.7070 H   0  0  0  0  0  0  0  0  0  0  0  0
    4.1480   -6.6530  -28.0020 H   0  0  0  0  0  0  0  0  0  0  0  0
    3.5690   -7.0010  -29.6380 H   0  0  0  0  0  0  0  0  0  0  0  0
    1.7020   -6.3540  -28.0080 H   0  0  0  0  0  0  0  0  0  0  0  0
    1.4880   -7.9060  -28.8460 H   0  0  0  0  0  0  0  0  0  0  0  0
   -0.3710   -7.7200  -26.5510 C   0  0  0  0  0  0  0  0  0  0  0  0
   -1.4960   -7.5430  -25.7610 C   0  0  0  0  0  0  0  0  0  0  0  0
   -2.4820   -7.5500  -26.2090 H   0  0  0  0  0  0  0  0  0  0  0  0
   -0.4850   -7.8330  -27.6250 H   0  0  0  0  0  0  0  0  0  0  0  0
    2.0150   -7.6520  -24.1330 H   0  0  0  0  0  0  0  0  0  0  0  0
    0.0390   -7.2030  -22.7440 H   0  0  0  0  0  0  0  0  0  0  0  0
   -2.4160   -6.4940  -22.7930 H   0  0  0  0  0  0  0  0  0  0  0  0
  1  2  2  0  0  0  0
  2  3  1  0  0  0  0
  2 46  1  0  0  0  0
  3  4  1  0  0  0  0
  3 44  1  0  0  0  0
  3 45  1  0  0  0  0
  4  5  1  0  0  0  0
  4 34  1  0  0  0  0
  4 43  1  1  0  0  0
  5  6  1  0  0  0  0
  5 41  1  0  0  0  0
  5 42  1  0  0  0  0
  6  7  2  0  0  0  0
  6 12  1  0  0  0  0
  7  8  1  0  0  0  0
  7 40  1  0  0  0  0
  8  9  2  0  0  0  0
  8 39  1  0  0  0  0
  9 10  1  0  0  0  0
  9 11  1  0  0  0  0
 11 12  2  0  0  0  0
 11 38  1  0  0  0  0
 12 13  1  0  0  0  0
 13 14  1  0  0  0  0
 13 34  1  0  0  0  0
 13 37  1  1  0  0  0
 14 15  2  0  0  0  0
 14 16  1  0  0  0  0
 16 17  1  0  0  0  0
 16 33  1  0  0  0  0
 17 18  2  0  0  0  0
 17 26  1  0  0  0  0
 18 19  1  0  0  0  0
 18 32  1  0  0  0  0
 19 20  2  0  0  0  0
 20 21  1  0  0  0  0
 20 31  1  0  0  0  0
 21 22  2  0  0  0  0
 21 26  1  0  0  0  0
 22 23  1  0  0  0  0
 22 30  1  0  0  0  0
 23 24  2  0  0  0  0
 23 29  1  0  0  0  0
 24 25  1  0  0  0  0
 24 28  1  0  0  0  0
 25 26  2  0  0  0  0
 25 27  1  0  0  0  0
 34 35  1  0  0  0  0
 34 36  1  0  0  0  0
 46 47  1  0  0  0  0
 46 70  1  0  0  0  0
 47 48  2  0  0  0  0
 47 65  1  0  0  0  0
 48 49  1  0  0  0  0
 48 69  1  0  0  0  0
 49 50  2  0  0  0  0
 49 68  1  0  0  0  0
 50 51  1  0  0  0  0
 50 64  1  0  0  0  0
 51 52  1  0  0  0  0
 51 56  1  0  0  0  0
 52 53  1  0  0  0  0
 52 62  1  0  0  0  0
 52 63  1  0  0  0  0
 53 54  1  0  0  0  0
 53 60  1  0  0  0  0
 53 61  1  0  0  0  0
 54 55  1  0  0  0  0
 55 56  1  0  0  0  0
 55 58  1  0  0  0  0
 55 59  1  0  0  0  0
 56 57  2  0  0  0  0
 64 65  2  0  0  0  0
 64 67  1  0  0  0  0
 65 66  1  0  0  0  0
M  CHG  1   4   1
M  END
>  <MODEL>
       2

$$$$
best_conformers_25.pdb
 OpenBabel01292518153D

 70 75  0  0  1  0  0  0  0  0999 V2000
   -4.2850   -1.8320  -25.0990 O   0  0  0  0  0  0  0  0  0  0  0  0
   -4.7760   -2.7400  -25.7500 C   0  0  0  0  0  0  0  0  0  0  0  0
   -5.1390   -4.0300  -25.0340 C   0  0  0  0  0  0  0  0  0  0  0  0
   -6.2130   -3.6350  -24.0580 N   0  3  1  0  0  0  0  0  0  0  0  0
   -7.5170   -3.2380  -24.7790 C   0  0  0  0  0  0  0  0  0  0  0  0
   -8.6720   -2.9540  -23.8450 C   0  0  0  0  0  0  0  0  0  0  0  0
   -9.7880   -2.2690  -24.3320 C   0  0  0  0  0  0  0  0  0  0  0  0
  -10.9640   -2.1660  -23.6010 C   0  0  0  0  0  0  0  0  0  0  0  0
  -11.0130   -2.7840  -22.3570 C   0  0  0  0  0  0  0  0  0  0  0  0
  -12.5200   -2.8480  -21.4950 Cl  0  0  0  0  0  0  0  0  0  0  0  0
   -9.8820   -3.3750  -21.8080 C   0  0  0  0  0  0  0  0  0  0  0  0
   -8.6980   -3.4650  -22.5490 C   0  0  0  0  0  0  0  0  0  0  0  0
   -7.4860   -4.1680  -21.9720 C   0  0  2  0  0  0  0  0  0  0  0  0
   -6.6680   -3.4190  -20.9280 C   0  0  0  0  0  0  0  0  0  0  0  0
   -5.9880   -4.0230  -20.1170 O   0  0  0  0  0  0  0  0  0  0  0  0
   -6.6570   -2.0600  -21.0370 N   0  0  0  0  0  0  0  0  0  0  0  0
   -6.1260   -1.2200  -20.0370 C   0  0  0  0  0  0  0  0  0  0  0  0
   -6.5310   -1.3200  -18.7290 C   0  0  0  0  0  0  0  0  0  0  0  0
   -6.0570   -0.5450  -17.7240 N   0  0  0  0  0  0  0  0  0  0  0  0
   -5.1370    0.3410  -18.0310 C   0  0  0  0  0  0  0  0  0  0  0  0
   -4.6330    0.5400  -19.3480 C   0  0  0  0  0  0  0  0  0  0  0  0
   -3.6330    1.5010  -19.6400 C   0  0  0  0  0  0  0  0  0  0  0  0
   -3.1700    1.6480  -20.9190 C   0  0  0  0  0  0  0  0  0  0  0  0
   -3.6720    0.8440  -21.9680 C   0  0  0  0  0  0  0  0  0  0  0  0
   -4.6390   -0.0970  -21.7150 C   0  0  0  0  0  0  0  0  0  0  0  0
   -5.1460   -0.2560  -20.3960 C   0  0  0  0  0  0  0  0  0  0  0  0
   -5.0100   -0.7190  -22.5300 H   0  0  0  0  0  0  0  0  0  0  0  0
   -3.3000    0.9730  -22.9820 H   0  0  0  0  0  0  0  0  0  0  0  0
   -2.4110    2.3940  -21.1430 H   0  0  0  0  0  0  0  0  0  0  0  0
   -3.2560    2.1180  -18.8300 H   0  0  0  0  0  0  0  0  0  0  0  0
   -4.7390    0.9550  -17.2200 H   0  0  0  0  0  0  0  0  0  0  0  0
   -7.2710   -2.0680  -18.4460 H   0  0  0  0  0  0  0  0  0  0  0  0
   -7.1990   -1.6550  -21.7860 H   0  0  0  0  0  0  0  0  0  0  0  0
   -6.5290   -4.6860  -23.0440 C   0  0  0  0  0  0  0  0  0  0  0  0
   -7.0110   -5.5280  -23.5470 H   0  0  0  0  0  0  0  0  0  0  0  0
   -5.6120   -5.0410  -22.5720 H   0  0  0  0  0  0  0  0  0  0  0  0
   -7.7990   -5.0520  -21.4320 H   0  0  0  0  0  0  0  0  0  0  0  0
   -9.9240   -3.7730  -20.8010 H   0  0  0  0  0  0  0  0  0  0  0  0
  -11.8130   -1.6020  -23.9820 H   0  0  0  0  0  0  0  0  0  0  0  0
   -9.7560   -1.8390  -25.3280 H   0  0  0  0  0  0  0  0  0  0  0  0
   -7.3150   -2.3790  -25.4140 H   0  0  0  0  0  0  0  0  0  0  0  0
   -7.7720   -4.0680  -25.4470 H   0  0  0  0  0  0  0  0  0  0  0  0
   -5.8150   -2.7830  -23.6010 H   0  0  0  0  0  0  0  0  0  0  0  0
   -4.2590   -4.3970  -24.4960 H   0  0  0  0  0  0  0  0  0  0  0  0
   -5.4900   -4.8010  -25.7250 H   0  0  0  0  0  0  0  0  0  0  0  0
   -5.1730   -2.6530  -27.0570 N   0  0  0  0  0  0  0  0  0  0  0  0
   -5.1980   -1.4680  -27.8270 C   0  0  0  0  0  0  0  0  0  0  0  0
   -5.3090   -0.2280  -27.2000 C   0  0  0  0  0  0  0  0  0  0  0  0
   -5.3530    0.9270  -27.9540 C   0  0  0  0  0  0  0  0  0  0  0  0
   -5.2290    0.8720  -29.3390 C   0  0  0  0  0  0  0  0  0  0  0  0
   -5.2150    2.0690  -30.0990 N   0  0  0  0  0  0  0  0  0  0  0  0
   -4.2970    2.1810  -31.2290 C   0  0  0  0  0  0  0  0  0  0  0  0
   -4.0160    3.6420  -31.5360 C   0  0  0  0  0  0  0  0  0  0  0  0
   -5.2370    4.3230  -31.7050 O   0  0  0  0  0  0  0  0  0  0  0  0
   -5.9540    4.3760  -30.5000 C   0  0  0  0  0  0  0  0  0  0  0  0
   -6.1510    3.0350  -29.8130 C   0  0  0  0  0  0  0  0  0  0  0  0
   -7.0480    2.8880  -29.0030 O   0  0  0  0  0  0  0  0  0  0  0  0
   -5.4580    5.0280  -29.7650 H   0  0  0  0  0  0  0  0  0  0  0  0
   -6.9380    4.7970  -30.7020 H   0  0  0  0  0  0  0  0  0  0  0  0
   -3.4060    4.1130  -30.7500 H   0  0  0  0  0  0  0  0  0  0  0  0
   -3.4670    3.7350  -32.4760 H   0  0  0  0  0  0  0  0  0  0  0  0
   -4.7250    1.7200  -32.1290 H   0  0  0  0  0  0  0  0  0  0  0  0
   -3.3660    1.6600  -30.9910 H   0  0  0  0  0  0  0  0  0  0  0  0
   -5.0840   -0.3660  -29.9610 C   0  0  0  0  0  0  0  0  0  0  0  0
   -5.1050   -1.5360  -29.2180 C   0  0  0  0  0  0  0  0  0  0  0  0
   -5.0160   -2.4970  -29.7230 H   0  0  0  0  0  0  0  0  0  0  0  0
   -4.9780   -0.4120  -31.0400 H   0  0  0  0  0  0  0  0  0  0  0  0
   -5.4920    1.8750  -27.4500 H   0  0  0  0  0  0  0  0  0  0  0  0
   -5.3650   -0.1770  -26.1200 H   0  0  0  0  0  0  0  0  0  0  0  0
   -5.5850   -3.4780  -27.4730 H   0  0  0  0  0  0  0  0  0  0  0  0
  1  2  2  0  0  0  0
  2  3  1  0  0  0  0
  2 46  1  0  0  0  0
  3  4  1  0  0  0  0
  3 44  1  0  0  0  0
  3 45  1  0  0  0  0
  4  5  1  0  0  0  0
  4 34  1  0  0  0  0
  4 43  1  1  0  0  0
  5  6  1  0  0  0  0
  5 41  1  0  0  0  0
  5 42  1  0  0  0  0
  6  7  2  0  0  0  0
  6 12  1  0  0  0  0
  7  8  1  0  0  0  0
  7 40  1  0  0  0  0
  8  9  2  0  0  0  0
  8 39  1  0  0  0  0
  9 10  1  0  0  0  0
  9 11  1  0  0  0  0
 11 12  2  0  0  0  0
 11 38  1  0  0  0  0
 12 13  1  0  0  0  0
 13 14  1  0  0  0  0
 13 34  1  0  0  0  0
 13 37  1  1  0  0  0
 14 15  2  0  0  0  0
 14 16  1  0  0  0  0
 16 17  1  0  0  0  0
 16 33  1  0  0  0  0
 17 18  2  0  0  0  0
 17 26  1  0  0  0  0
 18 19  1  0  0  0  0
 18 32  1  0  0  0  0
 19 20  2  0  0  0  0
 20 21  1  0  0  0  0
 20 31  1  0  0  0  0
 21 22  2  0  0  0  0
 21 26  1  0  0  0  0
 22 23  1  0  0  0  0
 22 30  1  0  0  0  0
 23 24  2  0  0  0  0
 23 29  1  0  0  0  0
 24 25  1  0  0  0  0
 24 28  1  0  0  0  0
 25 26  2  0  0  0  0
 25 27  1  0  0  0  0
 34 35  1  0  0  0  0
 34 36  1  0  0  0  0
 46 47  1  0  0  0  0
 46 70  1  0  0  0  0
 47 48  2  0  0  0  0
 47 65  1  0  0  0  0
 48 49  1  0  0  0  0
 48 69  1  0  0  0  0
 49 50  2  0  0  0  0
 49 68  1  0  0  0  0
 50 51  1  0  0  0  0
 50 64  1  0  0  0  0
 51 52  1  0  0  0  0
 51 56  1  0  0  0  0
 52 53  1  0  0  0  0
 52 62  1  0  0  0  0
 52 63  1  0  0  0  0
 53 54  1  0  0  0  0
 53 60  1  0  0  0  0
 53 61  1  0  0  0  0
 54 55  1  0  0  0  0
 55 56  1  0  0  0  0
 55 58  1  0  0  0  0
 55 59  1  0  0  0  0
 56 57  2  0  0  0  0
 64 65  2  0  0  0  0
 64 67  1  0  0  0  0
 65 66  1  0  0  0  0
M  CHG  1   4   1
M  END
>  <MODEL>
       3

$$$$
best_conformers_25.pdb
 OpenBabel01292518153D

 70 75  0  0  1  0  0  0  0  0999 V2000
   -2.4550   -6.8700  -23.8410 O   0  0  0  0  0  0  0  0  0  0  0  0
   -3.4660   -7.0660  -24.4900 C   0  0  0  0  0  0  0  0  0  0  0  0
   -4.8390   -6.8110  -23.8620 C   0  0  0  0  0  0  0  0  0  0  0  0
   -5.2070   -5.3450  -23.8000 N   0  3  1  0  0  0  0  0  0  0  0  0
   -5.3660   -4.8170  -25.2290 C   0  0  0  0  0  0  0  0  0  0  0  0
   -5.8580   -3.3930  -25.2800 C   0  0  0  0  0  0  0  0  0  0  0  0
   -5.6110   -2.6390  -26.4290 C   0  0  0  0  0  0  0  0  0  0  0  0
   -6.0840   -1.3410  -26.5520 C   0  0  0  0  0  0  0  0  0  0  0  0
   -6.8090   -0.7960  -25.4980 C   0  0  0  0  0  0  0  0  0  0  0  0
   -7.4270    0.8300  -25.6270 Cl  0  0  0  0  0  0  0  0  0  0  0  0
   -7.0590   -1.5290  -24.3480 C   0  0  0  0  0  0  0  0  0  0  0  0
   -6.5880   -2.8390  -24.2310 C   0  0  0  0  0  0  0  0  0  0  0  0
   -6.8550   -3.5960  -22.9410 C   0  0  2  0  0  0  0  0  0  0  0  0
   -6.0310   -2.9960  -21.8080 C   0  0  0  0  0  0  0  0  0  0  0  0
   -4.8670   -3.3260  -21.6710 O   0  0  0  0  0  0  0  0  0  0  0  0
   -6.6980   -2.0750  -21.0170 N   0  0  0  0  0  0  0  0  0  0  0  0
   -6.1220   -1.2360  -20.0270 C   0  0  0  0  0  0  0  0  0  0  0  0
   -6.5300   -1.3010  -18.7150 C   0  0  0  0  0  0  0  0  0  0  0  0
   -6.0330   -0.5380  -17.7080 N   0  0  0  0  0  0  0  0  0  0  0  0
   -5.1070    0.3390  -18.0180 C   0  0  0  0  0  0  0  0  0  0  0  0
   -4.6150    0.5350  -19.3390 C   0  0  0  0  0  0  0  0  0  0  0  0
   -3.6300    1.5160  -19.6310 C   0  0  0  0  0  0  0  0  0  0  0  0
   -3.2060    1.7050  -20.9170 C   0  0  0  0  0  0  0  0  0  0  0  0
   -3.7520    0.9360  -21.9720 C   0  0  0  0  0  0  0  0  0  0  0  0
   -4.7050   -0.0180  -21.7180 C   0  0  0  0  0  0  0  0  0  0  0  0
   -5.1430   -0.2580  -20.3830 C   0  0  0  0  0  0  0  0  0  0  0  0
   -5.1340   -0.5950  -22.5330 H   0  0  0  0  0  0  0  0  0  0  0  0
   -3.4120    1.1020  -22.9910 H   0  0  0  0  0  0  0  0  0  0  0  0
   -2.4550    2.4590  -21.1410 H   0  0  0  0  0  0  0  0  0  0  0  0
   -3.2410    2.1150  -18.8100 H   0  0  0  0  0  0  0  0  0  0  0  0
   -4.7050    0.9470  -17.2060 H   0  0  0  0  0  0  0  0  0  0  0  0
   -7.2940   -2.0140  -18.4070 H   0  0  0  0  0  0  0  0  0  0  0  0
   -7.7070   -2.1440  -21.0010 H   0  0  0  0  0  0  0  0  0  0  0  0
   -6.5260   -5.0910  -23.0470 C   0  0  0  0  0  0  0  0  0  0  0  0
   -6.4380   -5.5200  -22.0470 H   0  0  0  0  0  0  0  0  0  0  0  0
   -7.3280   -5.5980  -23.5940 H   0  0  0  0  0  0  0  0  0  0  0  0
   -7.9100   -3.4770  -22.6780 H   0  0  0  0  0  0  0  0  0  0  0  0
   -7.6140   -1.0690  -23.5370 H   0  0  0  0  0  0  0  0  0  0  0  0
   -5.8990   -0.7530  -27.4460 H   0  0  0  0  0  0  0  0  0  0  0  0
   -5.0390   -3.0840  -27.2420 H   0  0  0  0  0  0  0  0  0  0  0  0
   -4.4100   -4.8960  -25.7480 H   0  0  0  0  0  0  0  0  0  0  0  0
   -6.0740   -5.4790  -25.7480 H   0  0  0  0  0  0  0  0  0  0  0  0
   -4.4590   -4.7980  -23.2990 H   0  0  0  0  0  0  0  0  0  0  0  0
   -4.7950   -7.2200  -22.8540 H   0  0  0  0  0  0  0  0  0  0  0  0
   -5.6220   -7.3480  -24.4060 H   0  0  0  0  0  0  0  0  0  0  0  0
   -3.4580   -7.5450  -25.7810 N   0  0  0  0  0  0  0  0  0  0  0  0
   -2.3040   -8.0110  -26.4740 C   0  0  0  0  0  0  0  0  0  0  0  0
   -1.3230   -8.7410  -25.8030 C   0  0  0  0  0  0  0  0  0  0  0  0
   -0.1950   -9.2060  -26.4710 C   0  0  0  0  0  0  0  0  0  0  0  0
   -0.0230   -8.9550  -27.8360 C   0  0  0  0  0  0  0  0  0  0  0  0
    1.1290   -9.4440  -28.5280 N   0  0  0  0  0  0  0  0  0  0  0  0
    0.9740  -10.0000  -29.8700 C   0  0  0  0  0  0  0  0  0  0  0  0
    2.1200  -10.9480  -30.1970 C   0  0  0  0  0  0  0  0  0  0  0  0
    3.3470  -10.2930  -29.9790 O   0  0  0  0  0  0  0  0  0  0  0  0
    3.5240  -10.0190  -28.6140 C   0  0  0  0  0  0  0  0  0  0  0  0
    2.3690   -9.2640  -27.9600 C   0  0  0  0  0  0  0  0  0  0  0  0
    2.5540   -8.5990  -26.9580 O   0  0  0  0  0  0  0  0  0  0  0  0
    3.6480  -10.9590  -28.0490 H   0  0  0  0  0  0  0  0  0  0  0  0
    4.4230   -9.4080  -28.5140 H   0  0  0  0  0  0  0  0  0  0  0  0
    2.0660  -11.8630  -29.5870 H   0  0  0  0  0  0  0  0  0  0  0  0
    2.0920  -11.2280  -31.2550 H   0  0  0  0  0  0  0  0  0  0  0  0
    0.9670   -9.1950  -30.6190 H   0  0  0  0  0  0  0  0  0  0  0  0
    0.0220  -10.5370  -29.8930 H   0  0  0  0  0  0  0  0  0  0  0  0
   -1.0150   -8.2430  -28.5160 C   0  0  0  0  0  0  0  0  0  0  0  0
   -2.1450   -7.7730  -27.8440 C   0  0  0  0  0  0  0  0  0  0  0  0
   -2.9030   -7.2300  -28.4050 H   0  0  0  0  0  0  0  0  0  0  0  0
   -0.9110   -8.0570  -29.5850 H   0  0  0  0  0  0  0  0  0  0  0  0
    0.5590   -9.7590  -25.9130 H   0  0  0  0  0  0  0  0  0  0  0  0
   -1.4390   -8.9410  -24.7430 H   0  0  0  0  0  0  0  0  0  0  0  0
   -4.3190   -7.4960  -26.3050 H   0  0  0  0  0  0  0  0  0  0  0  0
  1  2  2  0  0  0  0
  2  3  1  0  0  0  0
  2 46  1  0  0  0  0
  3  4  1  0  0  0  0
  3 44  1  0  0  0  0
  3 45  1  0  0  0  0
  4  5  1  0  0  0  0
  4 34  1  0  0  0  0
  4 43  1  1  0  0  0
  5  6  1  0  0  0  0
  5 41  1  0  0  0  0
  5 42  1  0  0  0  0
  6  7  2  0  0  0  0
  6 12  1  0  0  0  0
  7  8  1  0  0  0  0
  7 40  1  0  0  0  0
  8  9  2  0  0  0  0
  8 39  1  0  0  0  0
  9 10  1  0  0  0  0
  9 11  1  0  0  0  0
 11 12  2  0  0  0  0
 11 38  1  0  0  0  0
 12 13  1  0  0  0  0
 13 14  1  0  0  0  0
 13 34  1  0  0  0  0
 13 37  1  1  0  0  0
 14 15  2  0  0  0  0
 14 16  1  0  0  0  0
 16 17  1  0  0  0  0
 16 33  1  0  0  0  0
 17 18  2  0  0  0  0
 17 26  1  0  0  0  0
 18 19  1  0  0  0  0
 18 32  1  0  0  0  0
 19 20  2  0  0  0  0
 20 21  1  0  0  0  0
 20 31  1  0  0  0  0
 21 22  2  0  0  0  0
 21 26  1  0  0  0  0
 22 23  1  0  0  0  0
 22 30  1  0  0  0  0
 23 24  2  0  0  0  0
 23 29  1  0  0  0  0
 24 25  1  0  0  0  0
 24 28  1  0  0  0  0
 25 26  2  0  0  0  0
 25 27  1  0  0  0  0
 34 35  1  0  0  0  0
 34 36  1  0  0  0  0
 46 47  1  0  0  0  0
 46 70  1  0  0  0  0
 47 48  2  0  0  0  0
 47 65  1  0  0  0  0
 48 49  1  0  0  0  0
 48 69  1  0  0  0  0
 49 50  2  0  0  0  0
 49 68  1  0  0  0  0
 50 51  1  0  0  0  0
 50 64  1  0  0  0  0
 51 52  1  0  0  0  0
 51 56  1  0  0  0  0
 52 53  1  0  0  0  0
 52 62  1  0  0  0  0
 52 63  1  0  0  0  0
 53 54  1  0  0  0  0
 53 60  1  0  0  0  0
 53 61  1  0  0  0  0
 54 55  1  0  0  0  0
 55 56  1  0  0  0  0
 55 58  1  0  0  0  0
 55 59  1  0  0  0  0
 56 57  2  0  0  0  0
 64 65  2  0  0  0  0
 64 67  1  0  0  0  0
 65 66  1  0  0  0  0
M  CHG  1   4   1
M  END
>  <MODEL>
       4

$$$$
best_conformers_25.pdb
 OpenBabel01292518153D

 70 75  0  0  1  0  0  0  0  0999 V2000
   -6.5500   -6.6780  -25.6320 O   0  0  0  0  0  0  0  0  0  0  0  0
   -6.6080   -6.3530  -24.4570 C   0  0  0  0  0  0  0  0  0  0  0  0
   -7.8570   -5.6660  -23.8810 C   0  0  0  0  0  0  0  0  0  0  0  0
   -7.6780   -4.1940  -23.6070 N   0  3  1  0  0  0  0  0  0  0  0  0
   -7.2810   -3.4410  -24.9010 C   0  0  0  0  0  0  0  0  0  0  0  0
   -7.1610   -1.9480  -24.6900 C   0  0  0  0  0  0  0  0  0  0  0  0
   -6.3560   -1.1800  -25.5390 C   0  0  0  0  0  0  0  0  0  0  0  0
   -6.2430    0.1980  -25.3840 C   0  0  0  0  0  0  0  0  0  0  0  0
   -6.9570    0.8210  -24.3610 C   0  0  0  0  0  0  0  0  0  0  0  0
   -6.8390    2.5520  -24.1560 Cl  0  0  0  0  0  0  0  0  0  0  0  0
   -7.7560    0.0760  -23.5030 C   0  0  0  0  0  0  0  0  0  0  0  0
   -7.8510   -1.3130  -23.6580 C   0  0  0  0  0  0  0  0  0  0  0  0
   -8.6470   -2.0910  -22.6360 C   0  0  2  0  0  0  0  0  0  0  0  0
   -8.0940   -2.0210  -21.2120 C   0  0  0  0  0  0  0  0  0  0  0  0
   -8.8730   -1.9780  -20.2820 O   0  0  0  0  0  0  0  0  0  0  0  0
   -6.7290   -1.9960  -21.0310 N   0  0  0  0  0  0  0  0  0  0  0  0
   -6.1390   -1.2110  -20.0100 C   0  0  0  0  0  0  0  0  0  0  0  0
   -6.5300   -1.3060  -18.6970 C   0  0  0  0  0  0  0  0  0  0  0  0
   -6.0140   -0.5490  -17.6910 N   0  0  0  0  0  0  0  0  0  0  0  0
   -5.1020    0.3400  -18.0110 C   0  0  0  0  0  0  0  0  0  0  0  0
   -4.6110    0.5440  -19.3310 C   0  0  0  0  0  0  0  0  0  0  0  0
   -3.6320    1.5240  -19.6360 C   0  0  0  0  0  0  0  0  0  0  0  0
   -3.2000    1.6950  -20.9220 C   0  0  0  0  0  0  0  0  0  0  0  0
   -3.7270    0.8940  -21.9630 C   0  0  0  0  0  0  0  0  0  0  0  0
   -4.6740   -0.0610  -21.6940 C   0  0  0  0  0  0  0  0  0  0  0  0
   -5.1360   -0.2560  -20.3660 C   0  0  0  0  0  0  0  0  0  0  0  0
   -5.0850   -0.6540  -22.5040 H   0  0  0  0  0  0  0  0  0  0  0  0
   -3.3950    1.0530  -22.9860 H   0  0  0  0  0  0  0  0  0  0  0  0
   -2.4630    2.4570  -21.1560 H   0  0  0  0  0  0  0  0  0  0  0  0
   -3.2530    2.1360  -18.8230 H   0  0  0  0  0  0  0  0  0  0  0  0
   -4.7110    0.9610  -17.2050 H   0  0  0  0  0  0  0  0  0  0  0  0
   -7.2940   -2.0180  -18.4020 H   0  0  0  0  0  0  0  0  0  0  0  0
   -6.1470   -2.2580  -21.8160 H   0  0  0  0  0  0  0  0  0  0  0  0
   -8.9280   -3.5380  -23.0290 C   0  0  0  0  0  0  0  0  0  0  0  0
   -9.2860   -4.0800  -22.1530 H   0  0  0  0  0  0  0  0  0  0  0  0
   -9.7060   -3.5740  -23.7970 H   0  0  0  0  0  0  0  0  0  0  0  0
   -9.6140   -1.6050  -22.4960 H   0  0  0  0  0  0  0  0  0  0  0  0
   -8.2820    0.5720  -22.6910 H   0  0  0  0  0  0  0  0  0  0  0  0
   -5.6170    0.7990  -26.0410 H   0  0  0  0  0  0  0  0  0  0  0  0
   -5.7970   -1.6680  -26.3360 H   0  0  0  0  0  0  0  0  0  0  0  0
   -6.3420   -3.8580  -25.2610 H   0  0  0  0  0  0  0  0  0  0  0  0
   -8.0520   -3.6700  -25.6470 H   0  0  0  0  0  0  0  0  0  0  0  0
   -6.9240   -4.0460  -22.8990 H   0  0  0  0  0  0  0  0  0  0  0  0
   -8.6300   -5.7950  -24.6390 H   0  0  0  0  0  0  0  0  0  0  0  0
   -8.2140   -6.1410  -22.9610 H   0  0  0  0  0  0  0  0  0  0  0  0
   -5.5820   -6.5490  -23.5750 N   0  0  0  0  0  0  0  0  0  0  0  0
   -4.3920   -7.2630  -23.8810 C   0  0  0  0  0  0  0  0  0  0  0  0
   -3.1600   -6.8480  -23.3700 C   0  0  0  0  0  0  0  0  0  0  0  0
   -1.9950   -7.5480  -23.6720 C   0  0  0  0  0  0  0  0  0  0  0  0
   -2.0420   -8.6890  -24.4810 C   0  0  0  0  0  0  0  0  0  0  0  0
   -0.8540   -9.3930  -24.8560 N   0  0  0  0  0  0  0  0  0  0  0  0
   -0.5170   -9.4990  -26.2760 C   0  0  0  0  0  0  0  0  0  0  0  0
    0.6240  -10.4860  -26.4950 C   0  0  0  0  0  0  0  0  0  0  0  0
    1.6790  -10.1840  -25.6140 O   0  0  0  0  0  0  0  0  0  0  0  0
    1.2960  -10.4580  -24.2930 C   0  0  0  0  0  0  0  0  0  0  0  0
    0.0020   -9.7760  -23.8570 C   0  0  0  0  0  0  0  0  0  0  0  0
   -0.2580   -9.6320  -22.6750 O   0  0  0  0  0  0  0  0  0  0  0  0
    2.0960  -10.0950  -23.6450 H   0  0  0  0  0  0  0  0  0  0  0  0
    1.1640  -11.5440  -24.1390 H   0  0  0  0  0  0  0  0  0  0  0  0
    0.2870  -11.5230  -26.3330 H   0  0  0  0  0  0  0  0  0  0  0  0
    1.0220  -10.3950  -27.5120 H   0  0  0  0  0  0  0  0  0  0  0  0
   -0.2220   -8.5090  -26.6500 H   0  0  0  0  0  0  0  0  0  0  0  0
   -1.4060   -9.8280  -26.8240 H   0  0  0  0  0  0  0  0  0  0  0  0
   -3.2750   -9.1060  -24.9760 C   0  0  0  0  0  0  0  0  0  0  0  0
   -4.4330   -8.3950  -24.7000 C   0  0  0  0  0  0  0  0  0  0  0  0
   -5.3530   -8.6850  -25.1820 H   0  0  0  0  0  0  0  0  0  0  0  0
   -3.3220   -9.9780  -25.6270 H   0  0  0  0  0  0  0  0  0  0  0  0
   -1.0480   -7.1910  -23.2790 H   0  0  0  0  0  0  0  0  0  0  0  0
   -3.1070   -5.9610  -22.7410 H   0  0  0  0  0  0  0  0  0  0  0  0
   -5.6690   -6.1030  -22.6760 H   0  0  0  0  0  0  0  0  0  0  0  0
  1  2  2  0  0  0  0
  2  3  1  0  0  0  0
  2 46  1  0  0  0  0
  3  4  1  0  0  0  0
  3 44  1  0  0  0  0
  3 45  1  0  0  0  0
  4  5  1  0  0  0  0
  4 34  1  0  0  0  0
  4 43  1  1  0  0  0
  5  6  1  0  0  0  0
  5 41  1  0  0  0  0
  5 42  1  0  0  0  0
  6  7  2  0  0  0  0
  6 12  1  0  0  0  0
  7  8  1  0  0  0  0
  7 40  1  0  0  0  0
  8  9  2  0  0  0  0
  8 39  1  0  0  0  0
  9 10  1  0  0  0  0
  9 11  1  0  0  0  0
 11 12  2  0  0  0  0
 11 38  1  0  0  0  0
 12 13  1  0  0  0  0
 13 14  1  0  0  0  0
 13 34  1  0  0  0  0
 13 37  1  1  0  0  0
 14 15  2  0  0  0  0
 14 16  1  0  0  0  0
 16 17  1  0  0  0  0
 16 33  1  0  0  0  0
 17 18  2  0  0  0  0
 17 26  1  0  0  0  0
 18 19  1  0  0  0  0
 18 32  1  0  0  0  0
 19 20  2  0  0  0  0
 20 21  1  0  0  0  0
 20 31  1  0  0  0  0
 21 22  2  0  0  0  0
 21 26  1  0  0  0  0
 22 23  1  0  0  0  0
 22 30  1  0  0  0  0
 23 24  2  0  0  0  0
 23 29  1  0  0  0  0
 24 25  1  0  0  0  0
 24 28  1  0  0  0  0
 25 26  2  0  0  0  0
 25 27  1  0  0  0  0
 34 35  1  0  0  0  0
 34 36  1  0  0  0  0
 46 47  1  0  0  0  0
 46 70  1  0  0  0  0
 47 48  2  0  0  0  0
 47 65  1  0  0  0  0
 48 49  1  0  0  0  0
 48 69  1  0  0  0  0
 49 50  2  0  0  0  0
 49 68  1  0  0  0  0
 50 51  1  0  0  0  0
 50 64  1  0  0  0  0
 51 52  1  0  0  0  0
 51 56  1  0  0  0  0
 52 53  1  0  0  0  0
 52 62  1  0  0  0  0
 52 63  1  0  0  0  0
 53 54  1  0  0  0  0
 53 60  1  0  0  0  0
 53 61  1  0  0  0  0
 54 55  1  0  0  0  0
 55 56  1  0  0  0  0
 55 58  1  0  0  0  0
 55 59  1  0  0  0  0
 56 57  2  0  0  0  0
 64 65  2  0  0  0  0
 64 67  1  0  0  0  0
 65 66  1  0  0  0  0
M  CHG  1   4   1
M  END
>  <MODEL>
       5

$$$$
