best_conformers_9.pdb
 OpenBabel01292518153D

 41 43  0  0  1  0  0  0  0  0999 V2000
   -8.4570   -7.5030  -23.6310 C   0  0  0  0  0  0  0  0  0  0  0  0
   -7.6510   -6.2100  -23.6460 C   0  0  1  0  0  0  0  0  0  0  0  0
   -8.5640   -5.0140  -23.4720 C   0  0  0  0  0  0  0  0  0  0  0  0
   -8.1780   -3.7460  -23.5470 C   0  0  0  0  0  0  0  0  0  0  0  0
   -6.7350   -3.3540  -23.7420 C   0  0  0  0  0  0  0  0  0  0  0  0
   -5.8380   -3.8390  -22.7000 N   0  0  0  0  0  0  0  0  0  0  0  0
   -5.7830   -3.2830  -21.4370 C   0  0  0  0  0  0  0  0  0  0  0  0
   -4.9930   -3.7030  -20.6080 O   0  0  0  0  0  0  0  0  0  0  0  0
   -6.7420   -2.1300  -21.0370 C   0  0  0  0  0  0  0  0  0  0  0  0
   -6.1360   -1.2120  -20.0000 C   0  0  0  0  0  0  0  0  0  0  0  0
   -6.5040   -1.2800  -18.6810 C   0  0  0  0  0  0  0  0  0  0  0  0
   -6.0140   -0.5110  -17.6700 N   0  0  0  0  0  0  0  0  0  0  0  0
   -5.0960    0.3700  -17.9970 C   0  0  0  0  0  0  0  0  0  0  0  0
   -4.6050    0.5530  -19.3210 C   0  0  0  0  0  0  0  0  0  0  0  0
   -3.6070    1.5160  -19.6270 C   0  0  0  0  0  0  0  0  0  0  0  0
   -3.1520    1.6680  -20.9100 C   0  0  0  0  0  0  0  0  0  0  0  0
   -3.6790    0.8590  -21.9430 C   0  0  0  0  0  0  0  0  0  0  0  0
   -4.6440   -0.0780  -21.6740 C   0  0  0  0  0  0  0  0  0  0  0  0
   -5.1370   -0.2570  -20.3530 C   0  0  0  0  0  0  0  0  0  0  0  0
   -5.0330   -0.6900  -22.4830 H   0  0  0  0  0  0  0  0  0  0  0  0
   -3.3170    0.9880  -22.9590 H   0  0  0  0  0  0  0  0  0  0  0  0
   -2.3910    2.4090  -21.1460 H   0  0  0  0  0  0  0  0  0  0  0  0
   -3.2110    2.1360  -18.8250 H   0  0  0  0  0  0  0  0  0  0  0  0
   -4.6880    0.9920  -17.1980 H   0  0  0  0  0  0  0  0  0  0  0  0
   -7.2610   -1.9980  -18.3680 H   0  0  0  0  0  0  0  0  0  0  0  0
   -7.0910   -1.5460  -21.8970 H   0  0  0  0  0  0  0  0  0  0  0  0
   -7.6380   -2.5930  -20.5990 H   0  0  0  0  0  0  0  0  0  0  0  0
   -5.4010   -5.2310  -22.8360 C   0  0  0  0  0  0  0  0  0  0  0  0
   -6.5090   -6.2650  -22.6120 C   0  0  0  0  0  0  0  0  0  0  0  0
   -6.9260   -6.1210  -21.6120 H   0  0  0  0  0  0  0  0  0  0  0  0
   -6.0640   -7.2720  -22.6140 H   0  0  0  0  0  0  0  0  0  0  0  0
   -4.5730   -5.3930  -22.1450 H   0  0  0  0  0  0  0  0  0  0  0  0
   -5.0110   -5.3580  -23.8480 H   0  0  0  0  0  0  0  0  0  0  0  0
   -6.6260   -2.2740  -23.8510 H   0  0  0  0  0  0  0  0  0  0  0  0
   -6.3740   -3.7720  -24.6860 H   0  0  0  0  0  0  0  0  0  0  0  0
   -8.9090   -2.9450  -23.4270 H   0  0  0  0  0  0  0  0  0  0  0  0
   -9.6100   -5.2210  -23.2560 H   0  0  0  0  0  0  0  0  0  0  0  0
   -7.1800   -6.1310  -24.6350 H   0  0  0  0  0  0  0  0  0  0  0  0
   -8.9250   -7.6550  -22.6550 H   0  0  0  0  0  0  0  0  0  0  0  0
   -7.8240   -8.3690  -23.8280 H   0  0  0  0  0  0  0  0  0  0  0  0
   -9.2460   -7.4890  -24.3890 H   0  0  0  0  0  0  0  0  0  0  0  0
  1  2  1  0  0  0  0
  1 39  1  0  0  0  0
  1 40  1  0  0  0  0
  1 41  1  0  0  0  0
  2  3  1  0  0  0  0
  2 29  1  0  0  0  0
  2 38  1  6  0  0  0
  3  4  2  0  0  0  0
  3 37  1  0  0  0  0
  4  5  1  0  0  0  0
  4 36  1  0  0  0  0
  5  6  1  0  0  0  0
  5 34  1  0  0  0  0
  5 35  1  0  0  0  0
  6  7  1  0  0  0  0
  6 28  1  0  0  0  0
  7  8  2  0  0  0  0
  7  9  1  0  0  0  0
  9 10  1  0  0  0  0
  9 26  1  0  0  0  0
  9 27  1  0  0  0  0
 10 11  2  0  0  0  0
 10 19  1  0  0  0  0
 11 12  1  0  0  0  0
 11 25  1  0  0  0  0
 12 13  2  0  0  0  0
 13 14  1  0  0  0  0
 13 24  1  0  0  0  0
 14 15  2  0  0  0  0
 14 19  1  0  0  0  0
 15 16  1  0  0  0  0
 15 23  1  0  0  0  0
 16 17  2  0  0  0  0
 16 22  1  0  0  0  0
 17 18  1  0  0  0  0
 17 21  1  0  0  0  0
 18 19  2  0  0  0  0
 18 20  1  0  0  0  0
 28 29  1  0  0  0  0
 28 32  1  0  0  0  0
 28 33  1  0  0  0  0
 29 30  1  0  0  0  0
 29 31  1  0  0  0  0
M  END
>  <MODEL>
       1

$$$$
best_conformers_9.pdb
 OpenBabel01292518153D

 41 43  0  0  1  0  0  0  0  0999 V2000
   -6.3110   -3.5690  -25.1140 C   0  0  0  0  0  0  0  0  0  0  0  0
   -6.4930   -5.0580  -24.8090 C   0  0  1  0  0  0  0  0  0  0  0  0
   -5.1880   -5.6530  -24.3330 C   0  0  0  0  0  0  0  0  0  0  0  0
   -4.8260   -5.9310  -23.0820 C   0  0  0  0  0  0  0  0  0  0  0  0
   -5.6990   -5.7280  -21.8680 C   0  0  0  0  0  0  0  0  0  0  0  0
   -6.4830   -4.4950  -21.8500 N   0  0  0  0  0  0  0  0  0  0  0  0
   -5.8860   -3.3750  -21.3080 C   0  0  0  0  0  0  0  0  0  0  0  0
   -4.7030   -3.3810  -21.0220 O   0  0  0  0  0  0  0  0  0  0  0  0
   -6.7720   -2.1430  -21.0120 C   0  0  0  0  0  0  0  0  0  0  0  0
   -6.1430   -1.2090  -20.0020 C   0  0  0  0  0  0  0  0  0  0  0  0
   -6.5080   -1.2780  -18.6850 C   0  0  0  0  0  0  0  0  0  0  0  0
   -6.0130   -0.5130  -17.6750 N   0  0  0  0  0  0  0  0  0  0  0  0
   -5.0960    0.3690  -18.0010 C   0  0  0  0  0  0  0  0  0  0  0  0
   -4.6050    0.5500  -19.3210 C   0  0  0  0  0  0  0  0  0  0  0  0
   -3.6070    1.5140  -19.6250 C   0  0  0  0  0  0  0  0  0  0  0  0
   -3.1470    1.6640  -20.9060 C   0  0  0  0  0  0  0  0  0  0  0  0
   -3.6680    0.8530  -21.9400 C   0  0  0  0  0  0  0  0  0  0  0  0
   -4.6350   -0.0840  -21.6710 C   0  0  0  0  0  0  0  0  0  0  0  0
   -5.1350   -0.2620  -20.3550 C   0  0  0  0  0  0  0  0  0  0  0  0
   -5.0150   -0.7090  -22.4730 H   0  0  0  0  0  0  0  0  0  0  0  0
   -3.3000    0.9780  -22.9550 H   0  0  0  0  0  0  0  0  0  0  0  0
   -2.3850    2.4060  -21.1400 H   0  0  0  0  0  0  0  0  0  0  0  0
   -3.2150    2.1350  -18.8220 H   0  0  0  0  0  0  0  0  0  0  0  0
   -4.6900    0.9890  -17.1980 H   0  0  0  0  0  0  0  0  0  0  0  0
   -7.2610   -1.9950  -18.3650 H   0  0  0  0  0  0  0  0  0  0  0  0
   -7.7400   -2.4970  -20.6270 H   0  0  0  0  0  0  0  0  0  0  0  0
   -6.9880   -1.6020  -21.9440 H   0  0  0  0  0  0  0  0  0  0  0  0
   -7.7420   -4.5080  -22.5800 C   0  0  0  0  0  0  0  0  0  0  0  0
   -7.6890   -5.3180  -23.8810 C   0  0  0  0  0  0  0  0  0  0  0  0
   -7.7540   -6.3890  -23.6640 H   0  0  0  0  0  0  0  0  0  0  0  0
   -8.6080   -5.0930  -24.4370 H   0  0  0  0  0  0  0  0  0  0  0  0
   -8.5390   -4.9150  -21.9440 H   0  0  0  0  0  0  0  0  0  0  0  0
   -8.0250   -3.4800  -22.8210 H   0  0  0  0  0  0  0  0  0  0  0  0
   -5.0910   -5.7650  -20.9640 H   0  0  0  0  0  0  0  0  0  0  0  0
   -6.4070   -6.5580  -21.7960 H   0  0  0  0  0  0  0  0  0  0  0  0
   -3.8180   -6.3070  -22.8960 H   0  0  0  0  0  0  0  0  0  0  0  0
   -4.4560   -5.8300  -25.1190 H   0  0  0  0  0  0  0  0  0  0  0  0
   -6.7240   -5.5480  -25.7660 H   0  0  0  0  0  0  0  0  0  0  0  0
   -5.5630   -3.4210  -25.8970 H   0  0  0  0  0  0  0  0  0  0  0  0
   -5.9600   -3.0200  -24.2350 H   0  0  0  0  0  0  0  0  0  0  0  0
   -7.2470   -3.1070  -25.4440 H   0  0  0  0  0  0  0  0  0  0  0  0
  1  2  1  0  0  0  0
  1 39  1  0  0  0  0
  1 40  1  0  0  0  0
  1 41  1  0  0  0  0
  2  3  1  0  0  0  0
  2 29  1  0  0  0  0
  2 38  1  6  0  0  0
  3  4  2  0  0  0  0
  3 37  1  0  0  0  0
  4  5  1  0  0  0  0
  4 36  1  0  0  0  0
  5  6  1  0  0  0  0
  5 34  1  0  0  0  0
  5 35  1  0  0  0  0
  6  7  1  0  0  0  0
  6 28  1  0  0  0  0
  7  8  2  0  0  0  0
  7  9  1  0  0  0  0
  9 10  1  0  0  0  0
  9 26  1  0  0  0  0
  9 27  1  0  0  0  0
 10 11  2  0  0  0  0
 10 19  1  0  0  0  0
 11 12  1  0  0  0  0
 11 25  1  0  0  0  0
 12 13  2  0  0  0  0
 13 14  1  0  0  0  0
 13 24  1  0  0  0  0
 14 15  2  0  0  0  0
 14 19  1  0  0  0  0
 15 16  1  0  0  0  0
 15 23  1  0  0  0  0
 16 17  2  0  0  0  0
 16 22  1  0  0  0  0
 17 18  1  0  0  0  0
 17 21  1  0  0  0  0
 18 19  2  0  0  0  0
 18 20  1  0  0  0  0
 28 29  1  0  0  0  0
 28 32  1  0  0  0  0
 28 33  1  0  0  0  0
 29 30  1  0  0  0  0
 29 31  1  0  0  0  0
M  END
>  <MODEL>
       2

$$$$
best_conformers_9.pdb
 OpenBabel01292518153D

 41 43  0  0  1  0  0  0  0  0999 V2000
   -6.6360    1.1580  -24.5370 C   0  0  0  0  0  0  0  0  0  0  0  0
   -7.0450   -0.0130  -25.4340 C   0  0  1  0  0  0  0  0  0  0  0  0
   -6.0980   -1.1780  -25.2380 C   0  0  0  0  0  0  0  0  0  0  0  0
   -6.3040   -2.3100  -24.5690 C   0  0  0  0  0  0  0  0  0  0  0  0
   -7.5870   -2.6610  -23.8590 C   0  0  0  0  0  0  0  0  0  0  0  0
   -8.1710   -1.5620  -23.1090 N   0  0  0  0  0  0  0  0  0  0  0  0
   -7.9660   -1.3380  -21.7670 C   0  0  0  0  0  0  0  0  0  0  0  0
   -8.6760   -0.5750  -21.1340 O   0  0  0  0  0  0  0  0  0  0  0  0
   -6.8060   -2.0750  -21.0480 C   0  0  0  0  0  0  0  0  0  0  0  0
   -6.1390   -1.2090  -19.9990 C   0  0  0  0  0  0  0  0  0  0  0  0
   -6.5120   -1.2750  -18.6810 C   0  0  0  0  0  0  0  0  0  0  0  0
   -6.0160   -0.5080  -17.6720 N   0  0  0  0  0  0  0  0  0  0  0  0
   -5.0950    0.3690  -17.9980 C   0  0  0  0  0  0  0  0  0  0  0  0
   -4.6050    0.5550  -19.3200 C   0  0  0  0  0  0  0  0  0  0  0  0
   -3.6140    1.5250  -19.6280 C   0  0  0  0  0  0  0  0  0  0  0  0
   -3.1720    1.6890  -20.9130 C   0  0  0  0  0  0  0  0  0  0  0  0
   -3.7070    0.8860  -21.9460 C   0  0  0  0  0  0  0  0  0  0  0  0
   -4.6600   -0.0660  -21.6760 C   0  0  0  0  0  0  0  0  0  0  0  0
   -5.1380   -0.2570  -20.3540 C   0  0  0  0  0  0  0  0  0  0  0  0
   -5.0560   -0.6630  -22.4960 H   0  0  0  0  0  0  0  0  0  0  0  0
   -3.3520    1.0250  -22.9640 H   0  0  0  0  0  0  0  0  0  0  0  0
   -2.4180    2.4370  -21.1490 H   0  0  0  0  0  0  0  0  0  0  0  0
   -3.2180    2.1420  -18.8250 H   0  0  0  0  0  0  0  0  0  0  0  0
   -4.6890    0.9910  -17.1960 H   0  0  0  0  0  0  0  0  0  0  0  0
   -7.2710   -1.9890  -18.3640 H   0  0  0  0  0  0  0  0  0  0  0  0
   -6.0580   -2.4800  -21.7440 H   0  0  0  0  0  0  0  0  0  0  0  0
   -7.2560   -2.9360  -20.5330 H   0  0  0  0  0  0  0  0  0  0  0  0
   -9.0240   -0.6370  -23.8530 C   0  0  0  0  0  0  0  0  0  0  0  0
   -8.5320   -0.3610  -25.2780 C   0  0  0  0  0  0  0  0  0  0  0  0
   -8.7780   -1.2030  -25.9340 H   0  0  0  0  0  0  0  0  0  0  0  0
   -9.1210    0.4760  -25.6740 H   0  0  0  0  0  0  0  0  0  0  0  0
  -10.0490   -1.0280  -23.8910 H   0  0  0  0  0  0  0  0  0  0  0  0
   -9.0770    0.2990  -23.2930 H   0  0  0  0  0  0  0  0  0  0  0  0
   -7.4490   -3.5150  -23.1950 H   0  0  0  0  0  0  0  0  0  0  0  0
   -8.3320   -2.9810  -24.5930 H   0  0  0  0  0  0  0  0  0  0  0  0
   -5.4950   -3.0370  -24.4970 H   0  0  0  0  0  0  0  0  0  0  0  0
   -5.1210   -1.0420  -25.7010 H   0  0  0  0  0  0  0  0  0  0  0  0
   -6.9060    0.3200  -26.4740 H   0  0  0  0  0  0  0  0  0  0  0  0
   -6.7070    0.9060  -23.4740 H   0  0  0  0  0  0  0  0  0  0  0  0
   -5.5980    1.4510  -24.7240 H   0  0  0  0  0  0  0  0  0  0  0  0
   -7.2730    2.0310  -24.7090 H   0  0  0  0  0  0  0  0  0  0  0  0
  1  2  1  0  0  0  0
  1 39  1  0  0  0  0
  1 40  1  0  0  0  0
  1 41  1  0  0  0  0
  2  3  1  0  0  0  0
  2 29  1  0  0  0  0
  2 38  1  6  0  0  0
  3  4  2  0  0  0  0
  3 37  1  0  0  0  0
  4  5  1  0  0  0  0
  4 36  1  0  0  0  0
  5  6  1  0  0  0  0
  5 34  1  0  0  0  0
  5 35  1  0  0  0  0
  6  7  1  0  0  0  0
  6 28  1  0  0  0  0
  7  8  2  0  0  0  0
  7  9  1  0  0  0  0
  9 10  1  0  0  0  0
  9 26  1  0  0  0  0
  9 27  1  0  0  0  0
 10 11  2  0  0  0  0
 10 19  1  0  0  0  0
 11 12  1  0  0  0  0
 11 25  1  0  0  0  0
 12 13  2  0  0  0  0
 13 14  1  0  0  0  0
 13 24  1  0  0  0  0
 14 15  2  0  0  0  0
 14 19  1  0  0  0  0
 15 16  1  0  0  0  0
 15 23  1  0  0  0  0
 16 17  2  0  0  0  0
 16 22  1  0  0  0  0
 17 18  1  0  0  0  0
 17 21  1  0  0  0  0
 18 19  2  0  0  0  0
 18 20  1  0  0  0  0
 28 29  1  0  0  0  0
 28 32  1  0  0  0  0
 28 33  1  0  0  0  0
 29 30  1  0  0  0  0
 29 31  1  0  0  0  0
M  END
>  <MODEL>
       3

$$$$
best_conformers_9.pdb
 OpenBabel01292518153D

 41 43  0  0  1  0  0  0  0  0999 V2000
   -7.8040   -5.7250  -25.4360 C   0  0  0  0  0  0  0  0  0  0  0  0
   -8.3280   -5.2300  -24.0800 C   0  0  1  0  0  0  0  0  0  0  0  0
   -7.8660   -6.1200  -22.9390 C   0  0  0  0  0  0  0  0  0  0  0  0
   -6.6460   -6.1750  -22.4050 C   0  0  0  0  0  0  0  0  0  0  0  0
   -5.4990   -5.2610  -22.7920 C   0  0  0  0  0  0  0  0  0  0  0  0
   -5.8360   -3.8360  -22.7010 N   0  0  0  0  0  0  0  0  0  0  0  0
   -5.7840   -3.2790  -21.4330 C   0  0  0  0  0  0  0  0  0  0  0  0
   -5.0170   -3.7250  -20.5990 O   0  0  0  0  0  0  0  0  0  0  0  0
   -6.7440   -2.1270  -21.0360 C   0  0  0  0  0  0  0  0  0  0  0  0
   -6.1350   -1.2100  -20.0000 C   0  0  0  0  0  0  0  0  0  0  0  0
   -6.5050   -1.2810  -18.6830 C   0  0  0  0  0  0  0  0  0  0  0  0
   -6.0140   -0.5110  -17.6720 N   0  0  0  0  0  0  0  0  0  0  0  0
   -5.0960    0.3690  -17.9980 C   0  0  0  0  0  0  0  0  0  0  0  0
   -4.6050    0.5530  -19.3200 C   0  0  0  0  0  0  0  0  0  0  0  0
   -3.6080    1.5150  -19.6270 C   0  0  0  0  0  0  0  0  0  0  0  0
   -3.1530    1.6670  -20.9090 C   0  0  0  0  0  0  0  0  0  0  0  0
   -3.6790    0.8590  -21.9430 C   0  0  0  0  0  0  0  0  0  0  0  0
   -4.6440   -0.0790  -21.6750 C   0  0  0  0  0  0  0  0  0  0  0  0
   -5.1360   -0.2570  -20.3540 C   0  0  0  0  0  0  0  0  0  0  0  0
   -5.0330   -0.6910  -22.4850 H   0  0  0  0  0  0  0  0  0  0  0  0
   -3.3170    0.9880  -22.9580 H   0  0  0  0  0  0  0  0  0  0  0  0
   -2.3920    2.4090  -21.1450 H   0  0  0  0  0  0  0  0  0  0  0  0
   -3.2130    2.1350  -18.8250 H   0  0  0  0  0  0  0  0  0  0  0  0
   -4.6890    0.9910  -17.1980 H   0  0  0  0  0  0  0  0  0  0  0  0
   -7.2610   -1.9990  -18.3670 H   0  0  0  0  0  0  0  0  0  0  0  0
   -7.0940   -1.5500  -21.8990 H   0  0  0  0  0  0  0  0  0  0  0  0
   -7.6370   -2.5930  -20.5900 H   0  0  0  0  0  0  0  0  0  0  0  0
   -6.6010   -3.2930  -23.8080 C   0  0  0  0  0  0  0  0  0  0  0  0
   -8.0650   -3.7260  -23.8480 C   0  0  0  0  0  0  0  0  0  0  0  0
   -8.5780   -3.1620  -24.6400 H   0  0  0  0  0  0  0  0  0  0  0  0
   -8.5350   -3.4320  -22.9030 H   0  0  0  0  0  0  0  0  0  0  0  0
   -6.5150   -2.2030  -23.8030 H   0  0  0  0  0  0  0  0  0  0  0  0
   -6.1030   -3.6140  -24.7280 H   0  0  0  0  0  0  0  0  0  0  0  0
   -4.6320   -5.4470  -22.1570 H   0  0  0  0  0  0  0  0  0  0  0  0
   -5.1950   -5.4640  -23.8240 H   0  0  0  0  0  0  0  0  0  0  0  0
   -6.4550   -6.8900  -21.6030 H   0  0  0  0  0  0  0  0  0  0  0  0
   -8.6170   -6.7990  -22.5340 H   0  0  0  0  0  0  0  0  0  0  0  0
   -9.4200   -5.3370  -24.1250 H   0  0  0  0  0  0  0  0  0  0  0  0
   -8.1620   -5.0870  -26.2520 H   0  0  0  0  0  0  0  0  0  0  0  0
   -8.1470   -6.7460  -25.6360 H   0  0  0  0  0  0  0  0  0  0  0  0
   -6.7120   -5.7430  -25.4910 H   0  0  0  0  0  0  0  0  0  0  0  0
  1  2  1  0  0  0  0
  1 39  1  0  0  0  0
  1 40  1  0  0  0  0
  1 41  1  0  0  0  0
  2  3  1  0  0  0  0
  2 29  1  0  0  0  0
  2 38  1  6  0  0  0
  3  4  2  0  0  0  0
  3 37  1  0  0  0  0
  4  5  1  0  0  0  0
  4 36  1  0  0  0  0
  5  6  1  0  0  0  0
  5 34  1  0  0  0  0
  5 35  1  0  0  0  0
  6  7  1  0  0  0  0
  6 28  1  0  0  0  0
  7  8  2  0  0  0  0
  7  9  1  0  0  0  0
  9 10  1  0  0  0  0
  9 26  1  0  0  0  0
  9 27  1  0  0  0  0
 10 11  2  0  0  0  0
 10 19  1  0  0  0  0
 11 12  1  0  0  0  0
 11 25  1  0  0  0  0
 12 13  2  0  0  0  0
 13 14  1  0  0  0  0
 13 24  1  0  0  0  0
 14 15  2  0  0  0  0
 14 19  1  0  0  0  0
 15 16  1  0  0  0  0
 15 23  1  0  0  0  0
 16 17  2  0  0  0  0
 16 22  1  0  0  0  0
 17 18  1  0  0  0  0
 17 21  1  0  0  0  0
 18 19  2  0  0  0  0
 18 20  1  0  0  0  0
 28 29  1  0  0  0  0
 28 32  1  0  0  0  0
 28 33  1  0  0  0  0
 29 30  1  0  0  0  0
 29 31  1  0  0  0  0
M  END
>  <MODEL>
       4

$$$$
best_conformers_9.pdb
 OpenBabel01292518153D

 41 43  0  0  1  0  0  0  0  0999 V2000
  -11.7240   -4.3500  -24.3280 C   0  0  0  0  0  0  0  0  0  0  0  0
  -10.5850   -3.3300  -24.2590 C   0  0  1  0  0  0  0  0  0  0  0  0
  -11.0560   -1.9260  -23.9170 C   0  0  0  0  0  0  0  0  0  0  0  0
  -10.2450   -0.8650  -23.8550 C   0  0  0  0  0  0  0  0  0  0  0  0
   -8.7460   -0.9460  -24.0840 C   0  0  0  0  0  0  0  0  0  0  0  0
   -8.0180   -1.8310  -23.1750 N   0  0  0  0  0  0  0  0  0  0  0  0
   -7.7680   -1.3230  -21.9160 C   0  0  0  0  0  0  0  0  0  0  0  0
   -8.2920   -0.2920  -21.5370 O   0  0  0  0  0  0  0  0  0  0  0  0
   -6.7760   -2.0990  -21.0370 C   0  0  0  0  0  0  0  0  0  0  0  0
   -6.1330   -1.2170  -20.0010 C   0  0  0  0  0  0  0  0  0  0  0  0
   -6.5190   -1.2780  -18.6900 C   0  0  0  0  0  0  0  0  0  0  0  0
   -6.0270   -0.5100  -17.6790 N   0  0  0  0  0  0  0  0  0  0  0  0
   -5.1030    0.3640  -18.0020 C   0  0  0  0  0  0  0  0  0  0  0  0
   -4.6080    0.5500  -19.3220 C   0  0  0  0  0  0  0  0  0  0  0  0
   -3.6170    1.5170  -19.6260 C   0  0  0  0  0  0  0  0  0  0  0  0
   -3.1740    1.6780  -20.9100 C   0  0  0  0  0  0  0  0  0  0  0  0
   -3.7050    0.8810  -21.9490 C   0  0  0  0  0  0  0  0  0  0  0  0
   -4.6650   -0.0630  -21.6820 C   0  0  0  0  0  0  0  0  0  0  0  0
   -5.1420   -0.2550  -20.3570 C   0  0  0  0  0  0  0  0  0  0  0  0
   -5.0750   -0.6650  -22.4880 H   0  0  0  0  0  0  0  0  0  0  0  0
   -3.3540    1.0230  -22.9670 H   0  0  0  0  0  0  0  0  0  0  0  0
   -2.4220    2.4270  -21.1400 H   0  0  0  0  0  0  0  0  0  0  0  0
   -3.2310    2.1300  -18.8150 H   0  0  0  0  0  0  0  0  0  0  0  0
   -4.6990    0.9790  -17.1950 H   0  0  0  0  0  0  0  0  0  0  0  0
   -7.2780   -1.9930  -18.3730 H   0  0  0  0  0  0  0  0  0  0  0  0
   -6.0250   -2.5840  -21.6750 H   0  0  0  0  0  0  0  0  0  0  0  0
   -7.3300   -2.9070  -20.5390 H   0  0  0  0  0  0  0  0  0  0  0  0
   -8.1080   -3.2560  -23.4650 C   0  0  0  0  0  0  0  0  0  0  0  0
   -9.5130   -3.8480  -23.2740 C   0  0  0  0  0  0  0  0  0  0  0  0
   -9.8680   -3.6890  -22.2440 H   0  0  0  0  0  0  0  0  0  0  0  0
   -9.4420   -4.9320  -23.4200 H   0  0  0  0  0  0  0  0  0  0  0  0
   -7.3790   -3.7850  -22.8410 H   0  0  0  0  0  0  0  0  0  0  0  0
   -7.8130   -3.3930  -24.5180 H   0  0  0  0  0  0  0  0  0  0  0  0
   -8.5420   -1.3330  -25.0930 H   0  0  0  0  0  0  0  0  0  0  0  0
   -8.2980    0.0500  -23.9970 H   0  0  0  0  0  0  0  0  0  0  0  0
  -10.6430    0.1240  -23.6230 H   0  0  0  0  0  0  0  0  0  0  0  0
  -12.1130   -1.7830  -23.6870 H   0  0  0  0  0  0  0  0  0  0  0  0
  -10.1130   -3.2820  -25.2560 H   0  0  0  0  0  0  0  0  0  0  0  0
  -11.3390   -5.3590  -24.5230 H   0  0  0  0  0  0  0  0  0  0  0  0
  -12.4060   -4.1120  -25.1420 H   0  0  0  0  0  0  0  0  0  0  0  0
  -12.2720   -4.3780  -23.3800 H   0  0  0  0  0  0  0  0  0  0  0  0
  1  2  1  0  0  0  0
  1 39  1  0  0  0  0
  1 40  1  0  0  0  0
  1 41  1  0  0  0  0
  2  3  1  0  0  0  0
  2 29  1  0  0  0  0
  2 38  1  6  0  0  0
  3  4  2  0  0  0  0
  3 37  1  0  0  0  0
  4  5  1  0  0  0  0
  4 36  1  0  0  0  0
  5  6  1  0  0  0  0
  5 34  1  0  0  0  0
  5 35  1  0  0  0  0
  6  7  1  0  0  0  0
  6 28  1  0  0  0  0
  7  8  2  0  0  0  0
  7  9  1  0  0  0  0
  9 10  1  0  0  0  0
  9 26  1  0  0  0  0
  9 27  1  0  0  0  0
 10 11  2  0  0  0  0
 10 19  1  0  0  0  0
 11 12  1  0  0  0  0
 11 25  1  0  0  0  0
 12 13  2  0  0  0  0
 13 14  1  0  0  0  0
 13 24  1  0  0  0  0
 14 15  2  0  0  0  0
 14 19  1  0  0  0  0
 15 16  1  0  0  0  0
 15 23  1  0  0  0  0
 16 17  2  0  0  0  0
 16 22  1  0  0  0  0
 17 18  1  0  0  0  0
 17 21  1  0  0  0  0
 18 19  2  0  0  0  0
 18 20  1  0  0  0  0
 28 29  1  0  0  0  0
 28 32  1  0  0  0  0
 28 33  1  0  0  0  0
 29 30  1  0  0  0  0
 29 31  1  0  0  0  0
M  END
>  <MODEL>
       5

$$$$
best_conformers_9.pdb
 OpenBabel01292518153D

 41 43  0  0  1  0  0  0  0  0999 V2000
   -8.8860   -3.4030  -26.5120 C   0  0  0  0  0  0  0  0  0  0  0  0
   -8.8860   -2.8350  -25.0870 C   0  0  1  0  0  0  0  0  0  0  0  0
   -9.6490   -1.5370  -25.0350 C   0  0  0  0  0  0  0  0  0  0  0  0
  -10.2920   -1.0130  -23.9890 C   0  0  0  0  0  0  0  0  0  0  0  0
  -10.2330   -1.5490  -22.5680 C   0  0  0  0  0  0  0  0  0  0  0  0
   -8.9850   -2.2140  -22.2190 N   0  0  0  0  0  0  0  0  0  0  0  0
   -7.9770   -1.4170  -21.7290 C   0  0  0  0  0  0  0  0  0  0  0  0
   -8.0500   -0.2010  -21.8020 O   0  0  0  0  0  0  0  0  0  0  0  0
   -6.7990   -2.1160  -21.0210 C   0  0  0  0  0  0  0  0  0  0  0  0
   -6.1350   -1.2210  -20.0030 C   0  0  0  0  0  0  0  0  0  0  0  0
   -6.5150   -1.2810  -18.6890 C   0  0  0  0  0  0  0  0  0  0  0  0
   -6.0260   -0.5090  -17.6820 N   0  0  0  0  0  0  0  0  0  0  0  0
   -5.1030    0.3660  -18.0040 C   0  0  0  0  0  0  0  0  0  0  0  0
   -4.6090    0.5490  -19.3230 C   0  0  0  0  0  0  0  0  0  0  0  0
   -3.6180    1.5160  -19.6260 C   0  0  0  0  0  0  0  0  0  0  0  0
   -3.1750    1.6820  -20.9090 C   0  0  0  0  0  0  0  0  0  0  0  0
   -3.7120    0.8880  -21.9490 C   0  0  0  0  0  0  0  0  0  0  0  0
   -4.6750   -0.0520  -21.6820 C   0  0  0  0  0  0  0  0  0  0  0  0
   -5.1450   -0.2560  -20.3590 C   0  0  0  0  0  0  0  0  0  0  0  0
   -5.1040   -0.6370  -22.4910 H   0  0  0  0  0  0  0  0  0  0  0  0
   -3.3640    1.0350  -22.9680 H   0  0  0  0  0  0  0  0  0  0  0  0
   -2.4240    2.4330  -21.1380 H   0  0  0  0  0  0  0  0  0  0  0  0
   -3.2320    2.1270  -18.8130 H   0  0  0  0  0  0  0  0  0  0  0  0
   -4.7000    0.9790  -17.1940 H   0  0  0  0  0  0  0  0  0  0  0  0
   -7.2720   -1.9950  -18.3660 H   0  0  0  0  0  0  0  0  0  0  0  0
   -6.0800   -2.4820  -21.7680 H   0  0  0  0  0  0  0  0  0  0  0  0
   -7.2020   -3.0060  -20.5200 H   0  0  0  0  0  0  0  0  0  0  0  0
   -8.8430   -3.6050  -22.6290 C   0  0  0  0  0  0  0  0  0  0  0  0
   -9.3510   -3.8720  -24.0570 C   0  0  0  0  0  0  0  0  0  0  0  0
   -8.9840   -4.8620  -24.3620 H   0  0  0  0  0  0  0  0  0  0  0  0
  -10.4480   -3.9290  -24.0770 H   0  0  0  0  0  0  0  0  0  0  0  0
   -7.7760   -3.8370  -22.5810 H   0  0  0  0  0  0  0  0  0  0  0  0
   -9.3840   -4.2700  -21.9370 H   0  0  0  0  0  0  0  0  0  0  0  0
  -11.0220   -2.2990  -22.4070 H   0  0  0  0  0  0  0  0  0  0  0  0
  -10.3790   -0.7200  -21.8580 H   0  0  0  0  0  0  0  0  0  0  0  0
  -10.8630   -0.0950  -24.1160 H   0  0  0  0  0  0  0  0  0  0  0  0
   -9.5090   -0.9680  -25.9540 H   0  0  0  0  0  0  0  0  0  0  0  0
   -7.8440   -2.5650  -24.8540 H   0  0  0  0  0  0  0  0  0  0  0  0
   -9.8800   -3.7310  -26.8460 H   0  0  0  0  0  0  0  0  0  0  0  0
   -8.2110   -4.2620  -26.5820 H   0  0  0  0  0  0  0  0  0  0  0  0
   -8.5300   -2.6510  -27.2250 H   0  0  0  0  0  0  0  0  0  0  0  0
  1  2  1  0  0  0  0
  1 39  1  0  0  0  0
  1 40  1  0  0  0  0
  1 41  1  0  0  0  0
  2  3  1  0  0  0  0
  2 29  1  0  0  0  0
  2 38  1  1  0  0  0
  3  4  2  0  0  0  0
  3 37  1  0  0  0  0
  4  5  1  0  0  0  0
  4 36  1  0  0  0  0
  5  6  1  0  0  0  0
  5 34  1  0  0  0  0
  5 35  1  0  0  0  0
  6  7  1  0  0  0  0
  6 28  1  0  0  0  0
  7  8  2  0  0  0  0
  7  9  1  0  0  0  0
  9 10  1  0  0  0  0
  9 26  1  0  0  0  0
  9 27  1  0  0  0  0
 10 11  2  0  0  0  0
 10 19  1  0  0  0  0
 11 12  1  0  0  0  0
 11 25  1  0  0  0  0
 12 13  2  0  0  0  0
 13 14  1  0  0  0  0
 13 24  1  0  0  0  0
 14 15  2  0  0  0  0
 14 19  1  0  0  0  0
 15 16  1  0  0  0  0
 15 23  1  0  0  0  0
 16 17  2  0  0  0  0
 16 22  1  0  0  0  0
 17 18  1  0  0  0  0
 17 21  1  0  0  0  0
 18 19  2  0  0  0  0
 18 20  1  0  0  0  0
 28 29  1  0  0  0  0
 28 32  1  0  0  0  0
 28 33  1  0  0  0  0
 29 30  1  0  0  0  0
 29 31  1  0  0  0  0
M  END
>  <MODEL>
       6

$$$$
best_conformers_9.pdb
 OpenBabel01292518153D

 41 43  0  0  1  0  0  0  0  0999 V2000
   -5.7980    0.0620  -26.9630 C   0  0  0  0  0  0  0  0  0  0  0  0
   -6.5440   -0.7700  -25.9200 C   0  0  1  0  0  0  0  0  0  0  0  0
   -5.5980   -1.7330  -25.2310 C   0  0  0  0  0  0  0  0  0  0  0  0
   -5.9650   -2.6510  -24.3410 C   0  0  0  0  0  0  0  0  0  0  0  0
   -7.3900   -2.8100  -23.8650 C   0  0  0  0  0  0  0  0  0  0  0  0
   -7.9570   -1.6180  -23.2460 N   0  0  0  0  0  0  0  0  0  0  0  0
   -7.8080   -1.3120  -21.9060 C   0  0  0  0  0  0  0  0  0  0  0  0
   -8.4760   -0.4420  -21.3760 O   0  0  0  0  0  0  0  0  0  0  0  0
   -6.7840   -2.0920  -21.0450 C   0  0  0  0  0  0  0  0  0  0  0  0
   -6.1380   -1.2100  -19.9980 C   0  0  0  0  0  0  0  0  0  0  0  0
   -6.5130   -1.2740  -18.6820 C   0  0  0  0  0  0  0  0  0  0  0  0
   -6.0170   -0.5070  -17.6710 N   0  0  0  0  0  0  0  0  0  0  0  0
   -5.0950    0.3690  -17.9980 C   0  0  0  0  0  0  0  0  0  0  0  0
   -4.6060    0.5550  -19.3210 C   0  0  0  0  0  0  0  0  0  0  0  0
   -3.6150    1.5230  -19.6290 C   0  0  0  0  0  0  0  0  0  0  0  0
   -3.1730    1.6860  -20.9130 C   0  0  0  0  0  0  0  0  0  0  0  0
   -3.7060    0.8840  -21.9490 C   0  0  0  0  0  0  0  0  0  0  0  0
   -4.6650   -0.0600  -21.6800 C   0  0  0  0  0  0  0  0  0  0  0  0
   -5.1420   -0.2530  -20.3560 C   0  0  0  0  0  0  0  0  0  0  0  0
   -5.0610   -0.6630  -22.4970 H   0  0  0  0  0  0  0  0  0  0  0  0
   -3.3530    1.0230  -22.9670 H   0  0  0  0  0  0  0  0  0  0  0  0
   -2.4180    2.4330  -21.1520 H   0  0  0  0  0  0  0  0  0  0  0  0
   -3.2160    2.1410  -18.8260 H   0  0  0  0  0  0  0  0  0  0  0  0
   -4.6870    0.9910  -17.1980 H   0  0  0  0  0  0  0  0  0  0  0  0
   -7.2730   -1.9900  -18.3680 H   0  0  0  0  0  0  0  0  0  0  0  0
   -7.3440   -2.8840  -20.5310 H   0  0  0  0  0  0  0  0  0  0  0  0
   -6.0140   -2.5870  -21.6500 H   0  0  0  0  0  0  0  0  0  0  0  0
   -8.4160   -0.5640  -24.1520 C   0  0  0  0  0  0  0  0  0  0  0  0
   -7.2980    0.1390  -24.9310 C   0  0  0  0  0  0  0  0  0  0  0  0
   -7.7280    0.9910  -25.4790 H   0  0  0  0  0  0  0  0  0  0  0  0
   -6.5840    0.5650  -24.2160 H   0  0  0  0  0  0  0  0  0  0  0  0
   -9.1030   -1.0180  -24.8750 H   0  0  0  0  0  0  0  0  0  0  0  0
   -8.9880    0.1560  -23.5630 H   0  0  0  0  0  0  0  0  0  0  0  0
   -8.0300   -3.0590  -24.7200 H   0  0  0  0  0  0  0  0  0  0  0  0
   -7.4810   -3.6470  -23.1710 H   0  0  0  0  0  0  0  0  0  0  0  0
   -5.2150   -3.3290  -23.9270 H   0  0  0  0  0  0  0  0  0  0  0  0
   -4.5400   -1.6470  -25.4810 H   0  0  0  0  0  0  0  0  0  0  0  0
   -7.3010   -1.3650  -26.4490 H   0  0  0  0  0  0  0  0  0  0  0  0
   -6.4820    0.7080  -27.5270 H   0  0  0  0  0  0  0  0  0  0  0  0
   -5.2760   -0.5820  -27.6810 H   0  0  0  0  0  0  0  0  0  0  0  0
   -5.0520    0.7050  -26.4810 H   0  0  0  0  0  0  0  0  0  0  0  0
  1  2  1  0  0  0  0
  1 39  1  0  0  0  0
  1 40  1  0  0  0  0
  1 41  1  0  0  0  0
  2  3  1  0  0  0  0
  2 29  1  0  0  0  0
  2 38  1  6  0  0  0
  3  4  2  0  0  0  0
  3 37  1  0  0  0  0
  4  5  1  0  0  0  0
  4 36  1  0  0  0  0
  5  6  1  0  0  0  0
  5 34  1  0  0  0  0
  5 35  1  0  0  0  0
  6  7  1  0  0  0  0
  6 28  1  0  0  0  0
  7  8  2  0  0  0  0
  7  9  1  0  0  0  0
  9 10  1  0  0  0  0
  9 26  1  0  0  0  0
  9 27  1  0  0  0  0
 10 11  2  0  0  0  0
 10 19  1  0  0  0  0
 11 12  1  0  0  0  0
 11 25  1  0  0  0  0
 12 13  2  0  0  0  0
 13 14  1  0  0  0  0
 13 24  1  0  0  0  0
 14 15  2  0  0  0  0
 14 19  1  0  0  0  0
 15 16  1  0  0  0  0
 15 23  1  0  0  0  0
 16 17  2  0  0  0  0
 16 22  1  0  0  0  0
 17 18  1  0  0  0  0
 17 21  1  0  0  0  0
 18 19  2  0  0  0  0
 18 20  1  0  0  0  0
 28 29  1  0  0  0  0
 28 32  1  0  0  0  0
 28 33  1  0  0  0  0
 29 30  1  0  0  0  0
 29 31  1  0  0  0  0
M  END
>  <MODEL>
       7

$$$$
best_conformers_9.pdb
 OpenBabel01292518153D

 41 43  0  0  1  0  0  0  0  0999 V2000
  -10.2350   -3.9650  -25.5160 C   0  0  0  0  0  0  0  0  0  0  0  0
  -10.1890   -3.9720  -23.9820 C   0  0  1  0  0  0  0  0  0  0  0  0
   -8.9430   -4.6620  -23.4580 C   0  0  0  0  0  0  0  0  0  0  0  0
   -7.7030   -4.1810  -23.4480 C   0  0  0  0  0  0  0  0  0  0  0  0
   -7.3330   -2.7840  -23.8810 C   0  0  0  0  0  0  0  0  0  0  0  0
   -8.0780   -1.7290  -23.2090 N   0  0  0  0  0  0  0  0  0  0  0  0
   -7.8210   -1.3390  -21.9050 C   0  0  0  0  0  0  0  0  0  0  0  0
   -8.4400   -0.4220  -21.3980 O   0  0  0  0  0  0  0  0  0  0  0  0
   -6.7740   -2.0950  -21.0470 C   0  0  0  0  0  0  0  0  0  0  0  0
   -6.1380   -1.2080  -20.0020 C   0  0  0  0  0  0  0  0  0  0  0  0
   -6.5130   -1.2730  -18.6860 C   0  0  0  0  0  0  0  0  0  0  0  0
   -6.0180   -0.5070  -17.6730 N   0  0  0  0  0  0  0  0  0  0  0  0
   -5.0960    0.3690  -17.9980 C   0  0  0  0  0  0  0  0  0  0  0  0
   -4.6060    0.5550  -19.3200 C   0  0  0  0  0  0  0  0  0  0  0  0
   -3.6130    1.5200  -19.6280 C   0  0  0  0  0  0  0  0  0  0  0  0
   -3.1690    1.6830  -20.9130 C   0  0  0  0  0  0  0  0  0  0  0  0
   -3.7040    0.8840  -21.9490 C   0  0  0  0  0  0  0  0  0  0  0  0
   -4.6650   -0.0580  -21.6790 C   0  0  0  0  0  0  0  0  0  0  0  0
   -5.1420   -0.2510  -20.3560 C   0  0  0  0  0  0  0  0  0  0  0  0
   -5.0690   -0.6560  -22.4910 H   0  0  0  0  0  0  0  0  0  0  0  0
   -3.3530    1.0220  -22.9670 H   0  0  0  0  0  0  0  0  0  0  0  0
   -2.4120    2.4280  -21.1500 H   0  0  0  0  0  0  0  0  0  0  0  0
   -3.2150    2.1370  -18.8250 H   0  0  0  0  0  0  0  0  0  0  0  0
   -4.6880    0.9900  -17.1970 H   0  0  0  0  0  0  0  0  0  0  0  0
   -7.2710   -1.9890  -18.3700 H   0  0  0  0  0  0  0  0  0  0  0  0
   -6.0030   -2.5870  -21.6510 H   0  0  0  0  0  0  0  0  0  0  0  0
   -7.3130   -2.9020  -20.5280 H   0  0  0  0  0  0  0  0  0  0  0  0
   -9.4280   -1.4820  -23.7200 C   0  0  0  0  0  0  0  0  0  0  0  0
  -10.4410   -2.5770  -23.3710 C   0  0  0  0  0  0  0  0  0  0  0  0
  -10.4730   -2.6730  -22.2810 H   0  0  0  0  0  0  0  0  0  0  0  0
  -11.4460   -2.2480  -23.6790 H   0  0  0  0  0  0  0  0  0  0  0  0
   -9.7600   -0.5220  -23.3210 H   0  0  0  0  0  0  0  0  0  0  0  0
   -9.3610   -1.3800  -24.8070 H   0  0  0  0  0  0  0  0  0  0  0  0
   -7.5220   -2.6670  -24.9530 H   0  0  0  0  0  0  0  0  0  0  0  0
   -6.2630   -2.6030  -23.7610 H   0  0  0  0  0  0  0  0  0  0  0  0
   -6.8930   -4.8080  -23.0720 H   0  0  0  0  0  0  0  0  0  0  0  0
   -9.0840   -5.6700  -23.0710 H   0  0  0  0  0  0  0  0  0  0  0  0
  -11.0360   -4.5920  -23.6610 H   0  0  0  0  0  0  0  0  0  0  0  0
  -10.2020   -4.9850  -25.9130 H   0  0  0  0  0  0  0  0  0  0  0  0
  -11.1590   -3.4970  -25.8750 H   0  0  0  0  0  0  0  0  0  0  0  0
   -9.3980   -3.4250  -25.9670 H   0  0  0  0  0  0  0  0  0  0  0  0
  1  2  1  0  0  0  0
  1 39  1  0  0  0  0
  1 40  1  0  0  0  0
  1 41  1  0  0  0  0
  2  3  1  0  0  0  0
  2 29  1  0  0  0  0
  2 38  1  1  0  0  0
  3  4  2  0  0  0  0
  3 37  1  0  0  0  0
  4  5  1  0  0  0  0
  4 36  1  0  0  0  0
  5  6  1  0  0  0  0
  5 34  1  0  0  0  0
  5 35  1  0  0  0  0
  6  7  1  0  0  0  0
  6 28  1  0  0  0  0
  7  8  2  0  0  0  0
  7  9  1  0  0  0  0
  9 10  1  0  0  0  0
  9 26  1  0  0  0  0
  9 27  1  0  0  0  0
 10 11  2  0  0  0  0
 10 19  1  0  0  0  0
 11 12  1  0  0  0  0
 11 25  1  0  0  0  0
 12 13  2  0  0  0  0
 13 14  1  0  0  0  0
 13 24  1  0  0  0  0
 14 15  2  0  0  0  0
 14 19  1  0  0  0  0
 15 16  1  0  0  0  0
 15 23  1  0  0  0  0
 16 17  2  0  0  0  0
 16 22  1  0  0  0  0
 17 18  1  0  0  0  0
 17 21  1  0  0  0  0
 18 19  2  0  0  0  0
 18 20  1  0  0  0  0
 28 29  1  0  0  0  0
 28 32  1  0  0  0  0
 28 33  1  0  0  0  0
 29 30  1  0  0  0  0
 29 31  1  0  0  0  0
M  END
>  <MODEL>
       8

$$$$
