best_conformers_5.pdb
 OpenBabel01292518153D

 58 61  0  0  1  0  0  0  0  0999 V2000
   -4.6220   -3.8550  -21.1550 C   0  0  0  0  0  0  0  0  0  0  0  0
   -5.8080   -3.9800  -21.7220 C   0  0  0  0  0  0  0  0  0  0  0  0
   -7.0060   -3.4020  -21.0250 C   0  0  0  0  0  0  0  0  0  0  0  0
   -7.0960   -1.9450  -21.0500 N   0  0  0  0  0  0  0  0  0  0  0  0
   -7.9160   -1.2030  -21.9040 C   0  0  0  0  0  0  0  0  0  0  0  0
   -8.2510   -0.0710  -21.6210 O   0  0  0  0  0  0  0  0  0  0  0  0
   -8.3160   -1.9100  -23.1880 C   0  0  2  0  0  0  0  0  0  0  0  0
   -7.9670   -1.0680  -24.4200 C   0  0  0  0  0  0  0  0  0  0  0  0
   -8.2800   -1.8300  -25.6210 N   0  0  0  0  0  0  0  0  0  0  0  0
   -7.4360   -1.7280  -26.8040 C   0  0  0  0  0  0  0  0  0  0  0  0
   -6.7280   -3.0380  -27.1940 C   0  0  0  0  0  0  0  0  0  0  0  0
   -6.6830   -3.4600  -28.3360 O   0  0  0  0  0  0  0  0  0  0  0  0
   -6.0890   -3.6400  -26.1600 N   0  0  0  0  0  0  0  0  0  0  0  0
   -5.6440   -5.0120  -26.3200 C   0  0  0  0  0  0  0  0  0  0  0  0
   -4.7870   -5.0670  -26.9970 H   0  0  0  0  0  0  0  0  0  0  0  0
   -6.4560   -5.6350  -26.7140 H   0  0  0  0  0  0  0  0  0  0  0  0
   -5.3490   -5.3900  -25.3370 H   0  0  0  0  0  0  0  0  0  0  0  0
   -6.3790   -3.4180  -25.2160 H   0  0  0  0  0  0  0  0  0  0  0  0
   -8.0230   -1.4110  -27.6650 H   0  0  0  0  0  0  0  0  0  0  0  0
   -6.6690   -0.9740  -26.5870 H   0  0  0  0  0  0  0  0  0  0  0  0
   -9.4600   -2.5200  -25.7540 C   0  0  0  0  0  0  0  0  0  0  0  0
   -9.8540   -2.9230  -26.8420 O   0  0  0  0  0  0  0  0  0  0  0  0
  -10.2440   -2.7510  -24.5030 C   0  0  0  0  0  0  0  0  0  0  0  0
  -11.4700   -3.3950  -24.6310 C   0  0  0  0  0  0  0  0  0  0  0  0
  -12.2770   -3.5820  -23.5220 C   0  0  0  0  0  0  0  0  0  0  0  0
  -11.8280   -3.1360  -22.2810 C   0  0  0  0  0  0  0  0  0  0  0  0
  -12.8680   -3.3260  -20.8980 Cl  0  0  0  0  0  0  0  0  0  0  0  0
  -10.5690   -2.5690  -22.1230 C   0  0  0  0  0  0  0  0  0  0  0  0
   -9.7590   -2.3780  -23.2460 C   0  0  0  0  0  0  0  0  0  0  0  0
  -10.2300   -2.2890  -21.1310 H   0  0  0  0  0  0  0  0  0  0  0  0
  -13.2440   -4.0630  -23.6200 H   0  0  0  0  0  0  0  0  0  0  0  0
  -11.7670   -3.7520  -25.6140 H   0  0  0  0  0  0  0  0  0  0  0  0
   -8.4930   -0.1060  -24.3930 H   0  0  0  0  0  0  0  0  0  0  0  0
   -6.8910   -0.8580  -24.4340 H   0  0  0  0  0  0  0  0  0  0  0  0
   -7.6970   -2.8030  -23.2610 H   0  0  0  0  0  0  0  0  0  0  0  0
   -6.3920   -1.2490  -20.0380 C   0  0  0  0  0  0  0  0  0  0  0  0
   -6.6870   -1.4540  -18.7120 C   0  0  0  0  0  0  0  0  0  0  0  0
   -6.1500   -0.7510  -17.6910 N   0  0  0  0  0  0  0  0  0  0  0  0
   -5.2420    0.1490  -18.0000 C   0  0  0  0  0  0  0  0  0  0  0  0
   -4.7700    0.3840  -19.3230 C   0  0  0  0  0  0  0  0  0  0  0  0
   -3.7700    1.3580  -19.6010 C   0  0  0  0  0  0  0  0  0  0  0  0
   -3.2920    1.5150  -20.8730 C   0  0  0  0  0  0  0  0  0  0  0  0
   -3.7780    0.6990  -21.9230 C   0  0  0  0  0  0  0  0  0  0  0  0
   -4.7590   -0.2350  -21.6820 C   0  0  0  0  0  0  0  0  0  0  0  0
   -5.3180   -0.3700  -20.3800 C   0  0  0  0  0  0  0  0  0  0  0  0
   -5.1060   -0.8810  -22.4850 H   0  0  0  0  0  0  0  0  0  0  0  0
   -3.3800    0.8250  -22.9270 H   0  0  0  0  0  0  0  0  0  0  0  0
   -2.5350    2.2690  -21.0850 H   0  0  0  0  0  0  0  0  0  0  0  0
   -3.3920    1.9620  -18.7780 H   0  0  0  0  0  0  0  0  0  0  0  0
   -4.8210    0.7370  -17.1850 H   0  0  0  0  0  0  0  0  0  0  0  0
   -7.4290   -2.2020  -18.4280 H   0  0  0  0  0  0  0  0  0  0  0  0
   -6.8500   -3.6180  -19.9650 H   0  0  0  0  0  0  0  0  0  0  0  0
   -7.9410   -3.8440  -21.3730 H   0  0  0  0  0  0  0  0  0  0  0  0
   -5.8300   -4.7340  -23.0740 C   0  0  0  0  0  0  0  0  0  0  0  0
   -6.8930   -4.6780  -23.7220 O   0  0  0  0  0  0  0  0  0  0  0  0
   -4.7700   -5.3110  -23.3860 O   0  5  0  0  0  0  0  0  0  0  0  0
   -3.8170   -4.3760  -21.6390 H   0  0  0  0  0  0  0  0  0  0  0  0
   -4.4650   -3.2780  -20.2440 H   0  0  0  0  0  0  0  0  0  0  0  0
  1  2  2  0  0  0  0
  1 57  1  0  0  0  0
  1 58  1  0  0  0  0
  2  3  1  0  0  0  0
  2 54  1  0  0  0  0
  3  4  1  0  0  0  0
  3 52  1  0  0  0  0
  3 53  1  0  0  0  0
  4  5  1  0  0  0  0
  4 36  1  0  0  0  0
  5  6  2  0  0  0  0
  5  7  1  0  0  0  0
  7  8  1  0  0  0  0
  7 29  1  0  0  0  0
  7 35  1  6  0  0  0
  8  9  1  0  0  0  0
  8 33  1  0  0  0  0
  8 34  1  0  0  0  0
  9 10  1  0  0  0  0
  9 21  1  0  0  0  0
 10 11  1  0  0  0  0
 10 19  1  0  0  0  0
 10 20  1  0  0  0  0
 11 12  2  0  0  0  0
 11 13  1  0  0  0  0
 13 14  1  0  0  0  0
 13 18  1  0  0  0  0
 14 15  1  0  0  0  0
 14 16  1  0  0  0  0
 14 17  1  0  0  0  0
 21 22  2  0  0  0  0
 21 23  1  0  0  0  0
 23 24  2  0  0  0  0
 23 29  1  0  0  0  0
 24 25  1  0  0  0  0
 24 32  1  0  0  0  0
 25 26  2  0  0  0  0
 25 31  1  0  0  0  0
 26 27  1  0  0  0  0
 26 28  1  0  0  0  0
 28 29  2  0  0  0  0
 28 30  1  0  0  0  0
 36 37  2  0  0  0  0
 36 45  1  0  0  0  0
 37 38  1  0  0  0  0
 37 51  1  0  0  0  0
 38 39  2  0  0  0  0
 39 40  1  0  0  0  0
 39 50  1  0  0  0  0
 40 41  2  0  0  0  0
 40 45  1  0  0  0  0
 41 42  1  0  0  0  0
 41 49  1  0  0  0  0
 42 43  2  0  0  0  0
 42 48  1  0  0  0  0
 43 44  1  0  0  0  0
 43 47  1  0  0  0  0
 44 45  2  0  0  0  0
 44 46  1  0  0  0  0
 54 55  2  0  0  0  0
 54 56  1  0  0  0  0
M  CHG  1  56  -1
M  END
>  <MODEL>
       1

$$$$
