best_conformers_86.pdb
 OpenBabel01292518153D

 43 45  0  0  1  0  0  0  0  0999 V2000
   -6.8050   -6.9030  -24.9340 C   0  0  0  0  0  0  0  0  0  0  0  0
   -7.4520   -6.7240  -23.5590 C   0  0  1  0  0  0  0  0  0  0  0  0
   -6.4500   -6.8190  -22.4120 C   0  0  0  0  0  0  0  0  0  0  0  0
   -5.5770   -5.5790  -22.2890 C   0  0  0  0  0  0  0  0  0  0  0  0
   -6.3970   -4.3770  -22.1360 N   0  0  0  0  0  0  0  0  0  0  0  0
   -5.8580   -3.3560  -21.3700 C   0  0  0  0  0  0  0  0  0  0  0  0
   -4.7300   -3.4360  -20.9190 O   0  0  0  0  0  0  0  0  0  0  0  0
   -6.7610   -2.1450  -21.0250 C   0  0  0  0  0  0  0  0  0  0  0  0
   -6.1390   -1.2160  -20.0060 C   0  0  0  0  0  0  0  0  0  0  0  0
   -6.5060   -1.2820  -18.6890 C   0  0  0  0  0  0  0  0  0  0  0  0
   -6.0140   -0.5150  -17.6780 N   0  0  0  0  0  0  0  0  0  0  0  0
   -5.0970    0.3670  -18.0010 C   0  0  0  0  0  0  0  0  0  0  0  0
   -4.6050    0.5480  -19.3210 C   0  0  0  0  0  0  0  0  0  0  0  0
   -3.6080    1.5110  -19.6270 C   0  0  0  0  0  0  0  0  0  0  0  0
   -3.1490    1.6630  -20.9070 C   0  0  0  0  0  0  0  0  0  0  0  0
   -3.6700    0.8530  -21.9410 C   0  0  0  0  0  0  0  0  0  0  0  0
   -4.6360   -0.0860  -21.6720 C   0  0  0  0  0  0  0  0  0  0  0  0
   -5.1340   -0.2660  -20.3570 C   0  0  0  0  0  0  0  0  0  0  0  0
   -5.0220   -0.7060  -22.4750 H   0  0  0  0  0  0  0  0  0  0  0  0
   -3.3040    0.9800  -22.9560 H   0  0  0  0  0  0  0  0  0  0  0  0
   -2.3870    2.4060  -21.1410 H   0  0  0  0  0  0  0  0  0  0  0  0
   -3.2180    2.1340  -18.8230 H   0  0  0  0  0  0  0  0  0  0  0  0
   -4.6920    0.9880  -17.1980 H   0  0  0  0  0  0  0  0  0  0  0  0
   -7.2600   -1.9960  -18.3660 H   0  0  0  0  0  0  0  0  0  0  0  0
   -7.0240   -1.5870  -21.9360 H   0  0  0  0  0  0  0  0  0  0  0  0
   -7.7120   -2.5280  -20.6240 H   0  0  0  0  0  0  0  0  0  0  0  0
   -7.4110   -4.1460  -23.1690 C   0  0  1  0  0  0  0  0  0  0  0  0
   -6.8390   -3.5160  -24.4470 C   0  0  0  0  0  0  0  0  0  0  0  0
   -6.0050   -4.0920  -24.8580 H   0  0  0  0  0  0  0  0  0  0  0  0
   -6.4740   -2.4990  -24.2630 H   0  0  0  0  0  0  0  0  0  0  0  0
   -7.6060   -3.4460  -25.2260 H   0  0  0  0  0  0  0  0  0  0  0  0
   -8.2320   -5.4180  -23.4220 C   0  0  0  0  0  0  0  0  0  0  0  0
   -8.8390   -5.2710  -24.3200 H   0  0  0  0  0  0  0  0  0  0  0  0
   -8.9370   -5.5220  -22.5960 H   0  0  0  0  0  0  0  0  0  0  0  0
   -8.1180   -3.4270  -22.7490 H   0  0  0  0  0  0  0  0  0  0  0  0
   -4.8860   -5.5060  -23.1430 H   0  0  0  0  0  0  0  0  0  0  0  0
   -4.9380   -5.6510  -21.4110 H   0  0  0  0  0  0  0  0  0  0  0  0
   -5.8210   -7.7050  -22.5430 H   0  0  0  0  0  0  0  0  0  0  0  0
   -6.9850   -6.9590  -21.4680 H   0  0  0  0  0  0  0  0  0  0  0  0
   -8.1770   -7.5450  -23.4420 H   0  0  0  0  0  0  0  0  0  0  0  0
   -7.5270   -6.7530  -25.7450 H   0  0  0  0  0  0  0  0  0  0  0  0
   -5.9520   -6.2430  -25.1060 H   0  0  0  0  0  0  0  0  0  0  0  0
   -6.3890   -7.9010  -25.0560 H   0  0  0  0  0  0  0  0  0  0  0  0
  1  2  1  0  0  0  0
  1 41  1  0  0  0  0
  1 42  1  0  0  0  0
  1 43  1  0  0  0  0
  2  3  1  0  0  0  0
  2 32  1  0  0  0  0
  2 40  1  1  0  0  0
  3  4  1  0  0  0  0
  3 38  1  0  0  0  0
  3 39  1  0  0  0  0
  4  5  1  0  0  0  0
  4 36  1  0  0  0  0
  4 37  1  0  0  0  0
  5  6  1  0  0  0  0
  5 27  1  0  0  0  0
  6  7  2  0  0  0  0
  6  8  1  0  0  0  0
  8  9  1  0  0  0  0
  8 25  1  0  0  0  0
  8 26  1  0  0  0  0
  9 10  2  0  0  0  0
  9 18  1  0  0  0  0
 10 11  1  0  0  0  0
 10 24  1  0  0  0  0
 11 12  2  0  0  0  0
 12 13  1  0  0  0  0
 12 23  1  0  0  0  0
 13 14  2  0  0  0  0
 13 18  1  0  0  0  0
 14 15  1  0  0  0  0
 14 22  1  0  0  0  0
 15 16  2  0  0  0  0
 15 21  1  0  0  0  0
 16 17  1  0  0  0  0
 16 20  1  0  0  0  0
 17 18  2  0  0  0  0
 17 19  1  0  0  0  0
 27 28  1  0  0  0  0
 27 32  1  0  0  0  0
 27 35  1  1  0  0  0
 28 29  1  0  0  0  0
 28 30  1  0  0  0  0
 28 31  1  0  0  0  0
 32 33  1  0  0  0  0
 32 34  1  0  0  0  0
M  END
>  <MODEL>
       1

$$$$
best_conformers_86.pdb
 OpenBabel01292518153D

 43 45  0  0  1  0  0  0  0  0999 V2000
   -7.1260   -7.3680  -25.1700 C   0  0  0  0  0  0  0  0  0  0  0  0
   -6.7190   -6.2650  -24.1980 C   0  0  1  0  0  0  0  0  0  0  0  0
   -7.8810   -5.3280  -23.8930 C   0  0  0  0  0  0  0  0  0  0  0  0
   -7.4430   -4.1270  -23.0530 C   0  0  0  0  0  0  0  0  0  0  0  0
   -6.4270   -4.4300  -22.0330 N   0  0  0  0  0  0  0  0  0  0  0  0
   -5.8680   -3.4020  -21.3230 C   0  0  0  0  0  0  0  0  0  0  0  0
   -4.7300   -3.4850  -20.8760 O   0  0  0  0  0  0  0  0  0  0  0  0
   -6.7460   -2.1630  -21.0340 C   0  0  0  0  0  0  0  0  0  0  0  0
   -6.1350   -1.2300  -20.0130 C   0  0  0  0  0  0  0  0  0  0  0  0
   -6.5110   -1.2950  -18.6990 C   0  0  0  0  0  0  0  0  0  0  0  0
   -6.0230   -0.5230  -17.6870 N   0  0  0  0  0  0  0  0  0  0  0  0
   -5.1030    0.3560  -18.0070 C   0  0  0  0  0  0  0  0  0  0  0  0
   -4.6050    0.5370  -19.3240 C   0  0  0  0  0  0  0  0  0  0  0  0
   -3.6110    1.5050  -19.6270 C   0  0  0  0  0  0  0  0  0  0  0  0
   -3.1550    1.6530  -20.9050 C   0  0  0  0  0  0  0  0  0  0  0  0
   -3.6690    0.8410  -21.9410 C   0  0  0  0  0  0  0  0  0  0  0  0
   -4.6290   -0.1030  -21.6750 C   0  0  0  0  0  0  0  0  0  0  0  0
   -5.1270   -0.2780  -20.3580 C   0  0  0  0  0  0  0  0  0  0  0  0
   -5.0200   -0.7300  -22.4710 H   0  0  0  0  0  0  0  0  0  0  0  0
   -3.3070    0.9770  -22.9560 H   0  0  0  0  0  0  0  0  0  0  0  0
   -2.3990    2.4000  -21.1310 H   0  0  0  0  0  0  0  0  0  0  0  0
   -3.2380    2.1260  -18.8140 H   0  0  0  0  0  0  0  0  0  0  0  0
   -4.7080    0.9760  -17.1980 H   0  0  0  0  0  0  0  0  0  0  0  0
   -7.2710   -2.0060  -18.3730 H   0  0  0  0  0  0  0  0  0  0  0  0
   -7.7060   -2.5290  -20.6460 H   0  0  0  0  0  0  0  0  0  0  0  0
   -6.9930   -1.6330  -21.9670 H   0  0  0  0  0  0  0  0  0  0  0  0
   -5.6720   -5.7050  -21.9380 C   0  0  1  0  0  0  0  0  0  0  0  0
   -5.7650   -6.1960  -20.4940 C   0  0  0  0  0  0  0  0  0  0  0  0
   -5.3590   -7.2050  -20.3860 H   0  0  0  0  0  0  0  0  0  0  0  0
   -5.2610   -5.5300  -19.7920 H   0  0  0  0  0  0  0  0  0  0  0  0
   -6.8360   -6.2080  -20.2880 H   0  0  0  0  0  0  0  0  0  0  0  0
   -6.2340   -6.8010  -22.8540 C   0  0  0  0  0  0  0  0  0  0  0  0
   -7.0780   -7.3060  -22.3500 H   0  0  0  0  0  0  0  0  0  0  0  0
   -5.4520   -7.5630  -22.9810 H   0  0  0  0  0  0  0  0  0  0  0  0
   -4.6350   -5.4650  -22.2230 H   0  0  0  0  0  0  0  0  0  0  0  0
   -8.3180   -3.6820  -22.5610 H   0  0  0  0  0  0  0  0  0  0  0  0
   -7.0320   -3.3640  -23.7330 H   0  0  0  0  0  0  0  0  0  0  0  0
   -8.3160   -4.9580  -24.8310 H   0  0  0  0  0  0  0  0  0  0  0  0
   -8.6640   -5.9040  -23.3740 H   0  0  0  0  0  0  0  0  0  0  0  0
   -5.8920   -5.7030  -24.6630 H   0  0  0  0  0  0  0  0  0  0  0  0
   -7.9060   -8.0130  -24.7400 H   0  0  0  0  0  0  0  0  0  0  0  0
   -7.5230   -6.9600  -26.1070 H   0  0  0  0  0  0  0  0  0  0  0  0
   -6.2450   -7.9670  -25.4180 H   0  0  0  0  0  0  0  0  0  0  0  0
  1  2  1  0  0  0  0
  1 41  1  0  0  0  0
  1 42  1  0  0  0  0
  1 43  1  0  0  0  0
  2  3  1  0  0  0  0
  2 32  1  0  0  0  0
  2 40  1  6  0  0  0
  3  4  1  0  0  0  0
  3 38  1  0  0  0  0
  3 39  1  0  0  0  0
  4  5  1  0  0  0  0
  4 36  1  0  0  0  0
  4 37  1  0  0  0  0
  5  6  1  0  0  0  0
  5 27  1  0  0  0  0
  6  7  2  0  0  0  0
  6  8  1  0  0  0  0
  8  9  1  0  0  0  0
  8 25  1  0  0  0  0
  8 26  1  0  0  0  0
  9 10  2  0  0  0  0
  9 18  1  0  0  0  0
 10 11  1  0  0  0  0
 10 24  1  0  0  0  0
 11 12  2  0  0  0  0
 12 13  1  0  0  0  0
 12 23  1  0  0  0  0
 13 14  2  0  0  0  0
 13 18  1  0  0  0  0
 14 15  1  0  0  0  0
 14 22  1  0  0  0  0
 15 16  2  0  0  0  0
 15 21  1  0  0  0  0
 16 17  1  0  0  0  0
 16 20  1  0  0  0  0
 17 18  2  0  0  0  0
 17 19  1  0  0  0  0
 27 28  1  0  0  0  0
 27 32  1  0  0  0  0
 27 35  1  6  0  0  0
 28 29  1  0  0  0  0
 28 30  1  0  0  0  0
 28 31  1  0  0  0  0
 32 33  1  0  0  0  0
 32 34  1  0  0  0  0
M  END
>  <MODEL>
       2

$$$$
best_conformers_86.pdb
 OpenBabel01292518153D

 43 45  0  0  1  0  0  0  0  0999 V2000
   -7.2990   -1.0450  -26.8800 C   0  0  0  0  0  0  0  0  0  0  0  0
   -8.5100   -1.4900  -26.0570 C   0  0  1  0  0  0  0  0  0  0  0  0
   -8.2270   -2.7160  -25.1980 C   0  0  0  0  0  0  0  0  0  0  0  0
   -7.3740   -2.3970  -23.9730 C   0  0  0  0  0  0  0  0  0  0  0  0
   -7.9810   -1.3410  -23.1750 N   0  0  0  0  0  0  0  0  0  0  0  0
   -7.9220   -1.3080  -21.7910 C   0  0  0  0  0  0  0  0  0  0  0  0
   -8.7270   -0.6740  -21.1330 O   0  0  0  0  0  0  0  0  0  0  0  0
   -6.7990   -2.0780  -21.0470 C   0  0  0  0  0  0  0  0  0  0  0  0
   -6.1350   -1.2110  -19.9970 C   0  0  0  0  0  0  0  0  0  0  0  0
   -6.5110   -1.2760  -18.6790 C   0  0  0  0  0  0  0  0  0  0  0  0
   -6.0160   -0.5070  -17.6700 N   0  0  0  0  0  0  0  0  0  0  0  0
   -5.0950    0.3690  -17.9980 C   0  0  0  0  0  0  0  0  0  0  0  0
   -4.6050    0.5550  -19.3200 C   0  0  0  0  0  0  0  0  0  0  0  0
   -3.6150    1.5240  -19.6290 C   0  0  0  0  0  0  0  0  0  0  0  0
   -3.1730    1.6880  -20.9140 C   0  0  0  0  0  0  0  0  0  0  0  0
   -3.7060    0.8870  -21.9490 C   0  0  0  0  0  0  0  0  0  0  0  0
   -4.6630   -0.0610  -21.6770 C   0  0  0  0  0  0  0  0  0  0  0  0
   -5.1400   -0.2560  -20.3530 C   0  0  0  0  0  0  0  0  0  0  0  0
   -5.0600   -0.6600  -22.4940 H   0  0  0  0  0  0  0  0  0  0  0  0
   -3.3530    1.0250  -22.9680 H   0  0  0  0  0  0  0  0  0  0  0  0
   -2.4190    2.4360  -21.1500 H   0  0  0  0  0  0  0  0  0  0  0  0
   -3.2200    2.1410  -18.8250 H   0  0  0  0  0  0  0  0  0  0  0  0
   -4.6890    0.9900  -17.1970 H   0  0  0  0  0  0  0  0  0  0  0  0
   -7.2720   -1.9890  -18.3640 H   0  0  0  0  0  0  0  0  0  0  0  0
   -6.0450   -2.4970  -21.7260 H   0  0  0  0  0  0  0  0  0  0  0  0
   -7.2820   -2.9200  -20.5340 H   0  0  0  0  0  0  0  0  0  0  0  0
   -8.3730   -0.0990  -23.8620 C   0  0  1  0  0  0  0  0  0  0  0  0
   -7.1930    0.8710  -24.0210 C   0  0  0  0  0  0  0  0  0  0  0  0
   -7.4700    1.7270  -24.6480 H   0  0  0  0  0  0  0  0  0  0  0  0
   -6.8780    1.2680  -23.0490 H   0  0  0  0  0  0  0  0  0  0  0  0
   -6.3250    0.3940  -24.4860 H   0  0  0  0  0  0  0  0  0  0  0  0
   -9.1150   -0.3970  -25.1730 C   0  0  0  0  0  0  0  0  0  0  0  0
   -9.1960    0.5310  -25.7510 H   0  0  0  0  0  0  0  0  0  0  0  0
  -10.1440   -0.6780  -24.9210 H   0  0  0  0  0  0  0  0  0  0  0  0
   -9.0900    0.3850  -23.1970 H   0  0  0  0  0  0  0  0  0  0  0  0
   -7.3110   -3.2910  -23.3530 H   0  0  0  0  0  0  0  0  0  0  0  0
   -6.3440   -2.1550  -24.2830 H   0  0  0  0  0  0  0  0  0  0  0  0
   -9.1730   -3.1530  -24.8630 H   0  0  0  0  0  0  0  0  0  0  0  0
   -7.7270   -3.4820  -25.7990 H   0  0  0  0  0  0  0  0  0  0  0  0
   -9.2730   -1.7800  -26.7880 H   0  0  0  0  0  0  0  0  0  0  0  0
   -6.4030   -0.8980  -26.2710 H   0  0  0  0  0  0  0  0  0  0  0  0
   -7.0550   -1.7980  -27.6390 H   0  0  0  0  0  0  0  0  0  0  0  0
   -7.4970   -0.1020  -27.4010 H   0  0  0  0  0  0  0  0  0  0  0  0
  1  2  1  0  0  0  0
  1 41  1  0  0  0  0
  1 42  1  0  0  0  0
  1 43  1  0  0  0  0
  2  3  1  0  0  0  0
  2 32  1  0  0  0  0
  2 40  1  6  0  0  0
  3  4  1  0  0  0  0
  3 38  1  0  0  0  0
  3 39  1  0  0  0  0
  4  5  1  0  0  0  0
  4 36  1  0  0  0  0
  4 37  1  0  0  0  0
  5  6  1  0  0  0  0
  5 27  1  0  0  0  0
  6  7  2  0  0  0  0
  6  8  1  0  0  0  0
  8  9  1  0  0  0  0
  8 25  1  0  0  0  0
  8 26  1  0  0  0  0
  9 10  2  0  0  0  0
  9 18  1  0  0  0  0
 10 11  1  0  0  0  0
 10 24  1  0  0  0  0
 11 12  2  0  0  0  0
 12 13  1  0  0  0  0
 12 23  1  0  0  0  0
 13 14  2  0  0  0  0
 13 18  1  0  0  0  0
 14 15  1  0  0  0  0
 14 22  1  0  0  0  0
 15 16  2  0  0  0  0
 15 21  1  0  0  0  0
 16 17  1  0  0  0  0
 16 20  1  0  0  0  0
 17 18  2  0  0  0  0
 17 19  1  0  0  0  0
 27 28  1  0  0  0  0
 27 32  1  0  0  0  0
 27 35  1  1  0  0  0
 28 29  1  0  0  0  0
 28 30  1  0  0  0  0
 28 31  1  0  0  0  0
 32 33  1  0  0  0  0
 32 34  1  0  0  0  0
M  END
>  <MODEL>
       3

$$$$
