best_conformers_63.pdb
 OpenBabel01292518153D

 57 61  0  0  1  0  0  0  0  0999 V2000
   -6.2970   -7.3890  -26.2990 C   0  0  0  0  0  0  0  0  0  0  0  0
   -6.7280   -6.0380  -26.5890 N   0  0  0  0  0  0  0  0  0  0  0  0
   -5.9920   -5.0050  -26.1170 C   0  0  0  0  0  0  0  0  0  0  0  0
   -4.9570   -5.1570  -25.4840 O   0  0  0  0  0  0  0  0  0  0  0  0
   -6.5800   -3.6220  -26.4090 C   0  0  0  0  0  0  0  0  0  0  0  0
   -7.5070   -3.2470  -25.3580 N   0  0  0  0  0  0  0  0  0  0  0  0
   -7.0100   -2.5150  -24.2060 C   0  0  0  0  0  0  0  0  0  0  0  0
   -7.8510   -2.7170  -22.9200 C   0  0  2  0  0  0  0  0  0  0  0  0
   -7.4900   -1.5670  -21.9790 C   0  0  0  0  0  0  0  0  0  0  0  0
   -7.7770   -0.3900  -22.1080 O   0  0  0  0  0  0  0  0  0  0  0  0
   -6.7150   -2.0640  -20.9610 N   0  0  0  0  0  0  0  0  0  0  0  0
   -6.1380   -1.2130  -20.0030 C   0  0  0  0  0  0  0  0  0  0  0  0
   -6.5290   -1.3220  -18.6970 C   0  0  0  0  0  0  0  0  0  0  0  0
   -6.0530   -0.5560  -17.6880 N   0  0  0  0  0  0  0  0  0  0  0  0
   -5.1410    0.3330  -18.0090 C   0  0  0  0  0  0  0  0  0  0  0  0
   -4.6370    0.5290  -19.3270 C   0  0  0  0  0  0  0  0  0  0  0  0
   -3.6450    1.5030  -19.6060 C   0  0  0  0  0  0  0  0  0  0  0  0
   -3.1540    1.6530  -20.8730 C   0  0  0  0  0  0  0  0  0  0  0  0
   -3.6340    0.8410  -21.9260 C   0  0  0  0  0  0  0  0  0  0  0  0
   -4.6030   -0.0980  -21.6870 C   0  0  0  0  0  0  0  0  0  0  0  0
   -5.1370   -0.2700  -20.3750 C   0  0  0  0  0  0  0  0  0  0  0  0
   -4.9760   -0.6990  -22.5130 H   0  0  0  0  0  0  0  0  0  0  0  0
   -3.2320    0.9670  -22.9270 H   0  0  0  0  0  0  0  0  0  0  0  0
   -2.3870    2.3950  -21.0790 H   0  0  0  0  0  0  0  0  0  0  0  0
   -3.2870    2.1200  -18.7860 H   0  0  0  0  0  0  0  0  0  0  0  0
   -4.7440    0.9530  -17.2050 H   0  0  0  0  0  0  0  0  0  0  0  0
   -7.2920   -2.0560  -18.4370 H   0  0  0  0  0  0  0  0  0  0  0  0
   -6.3570   -3.4580  -21.1120 C   0  0  0  0  0  0  0  0  0  0  0  0
   -7.4430   -3.9660  -22.0540 C   0  0  2  0  0  0  0  0  0  0  0  0
   -7.0250   -5.2360  -22.7800 C   0  0  0  0  0  0  0  0  0  0  0  0
   -8.0010   -5.7000  -23.6840 O   0  0  0  0  0  0  0  0  0  0  0  0
   -8.8090   -5.8890  -23.1880 H   0  0  0  0  0  0  0  0  0  0  0  0
   -6.1290   -5.0300  -23.3680 H   0  0  0  0  0  0  0  0  0  0  0  0
   -6.7660   -6.0120  -22.0400 H   0  0  0  0  0  0  0  0  0  0  0  0
   -8.3280   -4.1880  -21.4470 H   0  0  0  0  0  0  0  0  0  0  0  0
   -5.3540   -3.5750  -21.5560 H   0  0  0  0  0  0  0  0  0  0  0  0
   -6.3500   -3.9590  -20.1410 H   0  0  0  0  0  0  0  0  0  0  0  0
   -9.3270   -2.7230  -23.2490 C   0  0  0  0  0  0  0  0  0  0  0  0
  -10.2710   -2.4730  -22.2400 C   0  0  0  0  0  0  0  0  0  0  0  0
  -11.5980   -2.8090  -22.4370 C   0  0  0  0  0  0  0  0  0  0  0  0
  -12.7610   -2.7540  -21.1440 Cl  0  0  0  0  0  0  0  0  0  0  0  0
  -12.0350   -3.3050  -23.6630 C   0  0  0  0  0  0  0  0  0  0  0  0
  -11.1270   -3.4290  -24.6980 C   0  0  0  0  0  0  0  0  0  0  0  0
   -9.7770   -3.1800  -24.4830 C   0  0  0  0  0  0  0  0  0  0  0  0
   -8.8170   -3.5480  -25.5630 C   0  0  0  0  0  0  0  0  0  0  0  0
   -9.1980   -4.1270  -26.5790 O   0  0  0  0  0  0  0  0  0  0  0  0
  -11.4290   -3.7480  -25.6880 H   0  0  0  0  0  0  0  0  0  0  0  0
  -13.0640   -3.6190  -23.7640 H   0  0  0  0  0  0  0  0  0  0  0  0
   -9.9610   -2.0660  -21.2860 H   0  0  0  0  0  0  0  0  0  0  0  0
   -6.9870   -1.4470  -24.4460 H   0  0  0  0  0  0  0  0  0  0  0  0
   -5.9690   -2.8070  -24.0150 H   0  0  0  0  0  0  0  0  0  0  0  0
   -7.1190   -3.6230  -27.3610 H   0  0  0  0  0  0  0  0  0  0  0  0
   -5.7860   -2.8750  -26.4570 H   0  0  0  0  0  0  0  0  0  0  0  0
   -7.7010   -5.8560  -26.7930 H   0  0  0  0  0  0  0  0  0  0  0  0
   -6.1150   -7.5130  -25.2270 H   0  0  0  0  0  0  0  0  0  0  0  0
   -5.3740   -7.6180  -26.8400 H   0  0  0  0  0  0  0  0  0  0  0  0
   -7.0730   -8.0810  -26.6190 H   0  0  0  0  0  0  0  0  0  0  0  0
  1  2  1  0  0  0  0
  1 55  1  0  0  0  0
  1 56  1  0  0  0  0
  1 57  1  0  0  0  0
  2  3  1  0  0  0  0
  2 54  1  0  0  0  0
  3  4  2  0  0  0  0
  3  5  1  0  0  0  0
  5  6  1  0  0  0  0
  5 52  1  0  0  0  0
  5 53  1  0  0  0  0
  6  7  1  0  0  0  0
  6 45  1  0  0  0  0
  7  8  1  0  0  0  0
  7 50  1  0  0  0  0
  7 51  1  0  0  0  0
  8  9  1  1  0  0  0
  8 29  1  0  0  0  0
  8 38  1  0  0  0  0
  9 10  2  0  0  0  0
  9 11  1  0  0  0  0
 11 12  1  0  0  0  0
 11 28  1  0  0  0  0
 12 13  2  0  0  0  0
 12 21  1  0  0  0  0
 13 14  1  0  0  0  0
 13 27  1  0  0  0  0
 14 15  2  0  0  0  0
 15 16  1  0  0  0  0
 15 26  1  0  0  0  0
 16 17  2  0  0  0  0
 16 21  1  0  0  0  0
 17 18  1  0  0  0  0
 17 25  1  0  0  0  0
 18 19  2  0  0  0  0
 18 24  1  0  0  0  0
 19 20  1  0  0  0  0
 19 23  1  0  0  0  0
 20 21  2  0  0  0  0
 20 22  1  0  0  0  0
 28 29  1  0  0  0  0
 28 36  1  0  0  0  0
 28 37  1  0  0  0  0
 29 30  1  0  0  0  0
 29 35  1  1  0  0  0
 30 31  1  0  0  0  0
 30 33  1  0  0  0  0
 30 34  1  0  0  0  0
 31 32  1  0  0  0  0
 38 39  2  0  0  0  0
 38 44  1  0  0  0  0
 39 40  1  0  0  0  0
 39 49  1  0  0  0  0
 40 41  1  0  0  0  0
 40 42  2  0  0  0  0
 42 43  1  0  0  0  0
 42 48  1  0  0  0  0
 43 44  2  0  0  0  0
 43 47  1  0  0  0  0
 44 45  1  0  0  0  0
 45 46  2  0  0  0  0
M  END
>  <MODEL>
       1

$$$$
best_conformers_63.pdb
 OpenBabel01292518153D

 57 61  0  0  1  0  0  0  0  0999 V2000
   -6.7810   -1.5770  -29.4610 C   0  0  0  0  0  0  0  0  0  0  0  0
   -6.9750   -2.6760  -28.5460 N   0  0  0  0  0  0  0  0  0  0  0  0
   -6.3690   -2.5980  -27.3330 C   0  0  0  0  0  0  0  0  0  0  0  0
   -5.6660   -1.6530  -27.0160 O   0  0  0  0  0  0  0  0  0  0  0  0
   -6.6320   -3.7430  -26.3700 C   0  0  0  0  0  0  0  0  0  0  0  0
   -7.5670   -3.3210  -25.3430 N   0  0  0  0  0  0  0  0  0  0  0  0
   -7.0780   -2.4740  -24.2520 C   0  0  0  0  0  0  0  0  0  0  0  0
   -7.8750   -2.7070  -22.9480 C   0  0  2  0  0  0  0  0  0  0  0  0
   -7.5170   -1.5600  -22.0030 C   0  0  0  0  0  0  0  0  0  0  0  0
   -7.8250   -0.3900  -22.1290 O   0  0  0  0  0  0  0  0  0  0  0  0
   -6.7430   -2.0550  -20.9790 N   0  0  0  0  0  0  0  0  0  0  0  0
   -6.1580   -1.2090  -20.0170 C   0  0  0  0  0  0  0  0  0  0  0  0
   -6.5390   -1.3250  -18.7080 C   0  0  0  0  0  0  0  0  0  0  0  0
   -6.0600   -0.5640  -17.6950 N   0  0  0  0  0  0  0  0  0  0  0  0
   -5.1460    0.3250  -18.0140 C   0  0  0  0  0  0  0  0  0  0  0  0
   -4.6440    0.5240  -19.3310 C   0  0  0  0  0  0  0  0  0  0  0  0
   -3.6500    1.4970  -19.6060 C   0  0  0  0  0  0  0  0  0  0  0  0
   -3.1590    1.6490  -20.8710 C   0  0  0  0  0  0  0  0  0  0  0  0
   -3.6380    0.8380  -21.9260 C   0  0  0  0  0  0  0  0  0  0  0  0
   -4.6080   -0.0990  -21.6900 C   0  0  0  0  0  0  0  0  0  0  0  0
   -5.1460   -0.2730  -20.3820 C   0  0  0  0  0  0  0  0  0  0  0  0
   -4.9780   -0.7010  -22.5160 H   0  0  0  0  0  0  0  0  0  0  0  0
   -3.2310    0.9640  -22.9240 H   0  0  0  0  0  0  0  0  0  0  0  0
   -2.3920    2.3890  -21.0740 H   0  0  0  0  0  0  0  0  0  0  0  0
   -3.2930    2.1130  -18.7840 H   0  0  0  0  0  0  0  0  0  0  0  0
   -4.7480    0.9430  -17.2090 H   0  0  0  0  0  0  0  0  0  0  0  0
   -7.2990   -2.0610  -18.4490 H   0  0  0  0  0  0  0  0  0  0  0  0
   -6.3540   -3.4410  -21.1380 C   0  0  0  0  0  0  0  0  0  0  0  0
   -7.4260   -3.9560  -22.0960 C   0  0  2  0  0  0  0  0  0  0  0  0
   -7.0620   -5.2350  -22.8370 C   0  0  0  0  0  0  0  0  0  0  0  0
   -5.8220   -5.1550  -23.5180 O   0  0  0  0  0  0  0  0  0  0  0  0
   -5.1150   -5.3300  -22.8840 H   0  0  0  0  0  0  0  0  0  0  0  0
   -7.8270   -5.4290  -23.5930 H   0  0  0  0  0  0  0  0  0  0  0  0
   -7.0580   -6.0800  -22.1320 H   0  0  0  0  0  0  0  0  0  0  0  0
   -8.2960   -4.1910  -21.4780 H   0  0  0  0  0  0  0  0  0  0  0  0
   -5.3370   -3.5300  -21.5550 H   0  0  0  0  0  0  0  0  0  0  0  0
   -6.3550   -3.9460  -20.1670 H   0  0  0  0  0  0  0  0  0  0  0  0
   -9.3650   -2.7450  -23.2670 C   0  0  0  0  0  0  0  0  0  0  0  0
  -10.3080   -2.5090  -22.2560 C   0  0  0  0  0  0  0  0  0  0  0  0
  -11.6290   -2.8770  -22.4520 C   0  0  0  0  0  0  0  0  0  0  0  0
  -12.7860   -2.7670  -21.1630 Cl  0  0  0  0  0  0  0  0  0  0  0  0
  -12.0750   -3.4110  -23.6610 C   0  0  0  0  0  0  0  0  0  0  0  0
  -11.1780   -3.5060  -24.7090 C   0  0  0  0  0  0  0  0  0  0  0  0
   -9.8350   -3.1790  -24.5140 C   0  0  0  0  0  0  0  0  0  0  0  0
   -8.8950   -3.4480  -25.6410 C   0  0  0  0  0  0  0  0  0  0  0  0
   -9.2870   -3.8130  -26.7480 O   0  0  0  0  0  0  0  0  0  0  0  0
  -11.4730   -3.8530  -25.6970 H   0  0  0  0  0  0  0  0  0  0  0  0
  -13.1060   -3.7490  -23.7420 H   0  0  0  0  0  0  0  0  0  0  0  0
  -10.0030   -2.0670  -21.3110 H   0  0  0  0  0  0  0  0  0  0  0  0
   -7.1400   -1.4040  -24.5110 H   0  0  0  0  0  0  0  0  0  0  0  0
   -6.0150   -2.6910  -24.1030 H   0  0  0  0  0  0  0  0  0  0  0  0
   -7.0430   -4.6110  -26.8880 H   0  0  0  0  0  0  0  0  0  0  0  0
   -5.7080   -4.0450  -25.8710 H   0  0  0  0  0  0  0  0  0  0  0  0
   -7.8060   -3.2410  -28.6300 H   0  0  0  0  0  0  0  0  0  0  0  0
   -5.7220   -1.5300  -29.7270 H   0  0  0  0  0  0  0  0  0  0  0  0
   -7.0810   -0.6380  -28.9850 H   0  0  0  0  0  0  0  0  0  0  0  0
   -7.3740   -1.7370  -30.3630 H   0  0  0  0  0  0  0  0  0  0  0  0
  1  2  1  0  0  0  0
  1 55  1  0  0  0  0
  1 56  1  0  0  0  0
  1 57  1  0  0  0  0
  2  3  1  0  0  0  0
  2 54  1  0  0  0  0
  3  4  2  0  0  0  0
  3  5  1  0  0  0  0
  5  6  1  0  0  0  0
  5 52  1  0  0  0  0
  5 53  1  0  0  0  0
  6  7  1  0  0  0  0
  6 45  1  0  0  0  0
  7  8  1  0  0  0  0
  7 50  1  0  0  0  0
  7 51  1  0  0  0  0
  8  9  1  1  0  0  0
  8 29  1  0  0  0  0
  8 38  1  0  0  0  0
  9 10  2  0  0  0  0
  9 11  1  0  0  0  0
 11 12  1  0  0  0  0
 11 28  1  0  0  0  0
 12 13  2  0  0  0  0
 12 21  1  0  0  0  0
 13 14  1  0  0  0  0
 13 27  1  0  0  0  0
 14 15  2  0  0  0  0
 15 16  1  0  0  0  0
 15 26  1  0  0  0  0
 16 17  2  0  0  0  0
 16 21  1  0  0  0  0
 17 18  1  0  0  0  0
 17 25  1  0  0  0  0
 18 19  2  0  0  0  0
 18 24  1  0  0  0  0
 19 20  1  0  0  0  0
 19 23  1  0  0  0  0
 20 21  2  0  0  0  0
 20 22  1  0  0  0  0
 28 29  1  0  0  0  0
 28 36  1  0  0  0  0
 28 37  1  0  0  0  0
 29 30  1  0  0  0  0
 29 35  1  1  0  0  0
 30 31  1  0  0  0  0
 30 33  1  0  0  0  0
 30 34  1  0  0  0  0
 31 32  1  0  0  0  0
 38 39  2  0  0  0  0
 38 44  1  0  0  0  0
 39 40  1  0  0  0  0
 39 49  1  0  0  0  0
 40 41  1  0  0  0  0
 40 42  2  0  0  0  0
 42 43  1  0  0  0  0
 42 48  1  0  0  0  0
 43 44  2  0  0  0  0
 43 47  1  0  0  0  0
 44 45  1  0  0  0  0
 45 46  2  0  0  0  0
M  END
>  <MODEL>
       2

$$$$
best_conformers_63.pdb
 OpenBabel01292518153D

 57 61  0  0  1  0  0  0  0  0999 V2000
   -4.6580   -6.9360  -25.7230 C   0  0  0  0  0  0  0  0  0  0  0  0
   -5.0760   -5.5410  -25.7860 N   0  0  0  0  0  0  0  0  0  0  0  0
   -6.3290   -5.1890  -26.1680 C   0  0  0  0  0  0  0  0  0  0  0  0
   -7.2250   -6.0160  -26.2790 O   0  0  0  0  0  0  0  0  0  0  0  0
   -6.5970   -3.6880  -26.3840 C   0  0  0  0  0  0  0  0  0  0  0  0
   -7.5290   -3.1790  -25.3880 N   0  0  0  0  0  0  0  0  0  0  0  0
   -7.0220   -2.5120  -24.2010 C   0  0  0  0  0  0  0  0  0  0  0  0
   -7.8460   -2.7530  -22.9090 C   0  0  2  0  0  0  0  0  0  0  0  0
   -7.5040   -1.6040  -21.9350 C   0  0  0  0  0  0  0  0  0  0  0  0
   -7.8440   -0.4430  -22.0190 O   0  0  0  0  0  0  0  0  0  0  0  0
   -6.6600   -2.0850  -20.9520 N   0  0  0  0  0  0  0  0  0  0  0  0
   -6.0990   -1.2290  -19.9650 C   0  0  0  0  0  0  0  0  0  0  0  0
   -6.5000   -1.3300  -18.6580 C   0  0  0  0  0  0  0  0  0  0  0  0
   -6.0450   -0.5440  -17.6480 N   0  0  0  0  0  0  0  0  0  0  0  0
   -5.1420    0.3620  -17.9480 C   0  0  0  0  0  0  0  0  0  0  0  0
   -4.6150    0.5580  -19.2580 C   0  0  0  0  0  0  0  0  0  0  0  0
   -3.6260    1.5380  -19.5470 C   0  0  0  0  0  0  0  0  0  0  0  0
   -3.1370    1.6820  -20.8160 C   0  0  0  0  0  0  0  0  0  0  0  0
   -3.6140    0.8600  -21.8620 C   0  0  0  0  0  0  0  0  0  0  0  0
   -4.5700   -0.0870  -21.6110 C   0  0  0  0  0  0  0  0  0  0  0  0
   -5.1030   -0.2600  -20.3040 C   0  0  0  0  0  0  0  0  0  0  0  0
   -4.9430   -0.7090  -22.4200 H   0  0  0  0  0  0  0  0  0  0  0  0
   -3.2290    0.9820  -22.8690 H   0  0  0  0  0  0  0  0  0  0  0  0
   -2.3830    2.4340  -21.0370 H   0  0  0  0  0  0  0  0  0  0  0  0
   -3.2720    2.1770  -18.7430 H   0  0  0  0  0  0  0  0  0  0  0  0
   -4.7730    0.9890  -17.1330 H   0  0  0  0  0  0  0  0  0  0  0  0
   -7.2510   -2.0690  -18.3780 H   0  0  0  0  0  0  0  0  0  0  0  0
   -6.2790   -3.4730  -21.1440 C   0  0  0  0  0  0  0  0  0  0  0  0
   -7.3860   -3.9910  -22.0670 C   0  0  2  0  0  0  0  0  0  0  0  0
   -7.0410   -5.2540  -22.8450 C   0  0  0  0  0  0  0  0  0  0  0  0
   -8.1700   -5.6380  -23.5930 O   0  0  0  0  0  0  0  0  0  0  0  0
   -7.8890   -6.0200  -24.4420 H   0  0  0  0  0  0  0  0  0  0  0  0
   -6.1600   -5.0770  -23.4770 H   0  0  0  0  0  0  0  0  0  0  0  0
   -6.7650   -6.0450  -22.1280 H   0  0  0  0  0  0  0  0  0  0  0  0
   -8.2550   -4.2260  -21.4490 H   0  0  0  0  0  0  0  0  0  0  0  0
   -6.2460   -3.9910  -20.1800 H   0  0  0  0  0  0  0  0  0  0  0  0
   -5.2870   -3.5690  -21.6220 H   0  0  0  0  0  0  0  0  0  0  0  0
   -9.3260   -2.8310  -23.2290 C   0  0  0  0  0  0  0  0  0  0  0  0
  -10.2700   -2.6860  -22.1950 C   0  0  0  0  0  0  0  0  0  0  0  0
  -11.5730   -3.1130  -22.3880 C   0  0  0  0  0  0  0  0  0  0  0  0
  -12.7530   -3.1050  -21.1020 Cl  0  0  0  0  0  0  0  0  0  0  0  0
  -11.9950   -3.6050  -23.6180 C   0  0  0  0  0  0  0  0  0  0  0  0
  -11.1040   -3.6370  -24.6730 C   0  0  0  0  0  0  0  0  0  0  0  0
   -9.7850   -3.2280  -24.4850 C   0  0  0  0  0  0  0  0  0  0  0  0
   -8.8700   -3.2860  -25.6620 C   0  0  0  0  0  0  0  0  0  0  0  0
   -9.3020   -3.4570  -26.7920 O   0  0  0  0  0  0  0  0  0  0  0  0
  -11.4060   -3.9770  -25.6590 H   0  0  0  0  0  0  0  0  0  0  0  0
  -13.0210   -3.9270  -23.7290 H   0  0  0  0  0  0  0  0  0  0  0  0
   -9.9960   -2.2210  -21.2550 H   0  0  0  0  0  0  0  0  0  0  0  0
   -5.9910   -2.8450  -24.0310 H   0  0  0  0  0  0  0  0  0  0  0  0
   -6.9850   -1.4280  -24.3620 H   0  0  0  0  0  0  0  0  0  0  0  0
   -5.6640   -3.1130  -26.3690 H   0  0  0  0  0  0  0  0  0  0  0  0
   -7.0830   -3.5770  -27.3590 H   0  0  0  0  0  0  0  0  0  0  0  0
   -4.4020   -4.8230  -25.5760 H   0  0  0  0  0  0  0  0  0  0  0  0
   -4.4690   -7.3460  -26.7240 H   0  0  0  0  0  0  0  0  0  0  0  0
   -5.4300   -7.5390  -25.2350 H   0  0  0  0  0  0  0  0  0  0  0  0
   -3.7350   -7.0030  -25.1440 H   0  0  0  0  0  0  0  0  0  0  0  0
  1  2  1  0  0  0  0
  1 55  1  0  0  0  0
  1 56  1  0  0  0  0
  1 57  1  0  0  0  0
  2  3  1  0  0  0  0
  2 54  1  0  0  0  0
  3  4  2  0  0  0  0
  3  5  1  0  0  0  0
  5  6  1  0  0  0  0
  5 52  1  0  0  0  0
  5 53  1  0  0  0  0
  6  7  1  0  0  0  0
  6 45  1  0  0  0  0
  7  8  1  0  0  0  0
  7 50  1  0  0  0  0
  7 51  1  0  0  0  0
  8  9  1  1  0  0  0
  8 29  1  0  0  0  0
  8 38  1  0  0  0  0
  9 10  2  0  0  0  0
  9 11  1  0  0  0  0
 11 12  1  0  0  0  0
 11 28  1  0  0  0  0
 12 13  2  0  0  0  0
 12 21  1  0  0  0  0
 13 14  1  0  0  0  0
 13 27  1  0  0  0  0
 14 15  2  0  0  0  0
 15 16  1  0  0  0  0
 15 26  1  0  0  0  0
 16 17  2  0  0  0  0
 16 21  1  0  0  0  0
 17 18  1  0  0  0  0
 17 25  1  0  0  0  0
 18 19  2  0  0  0  0
 18 24  1  0  0  0  0
 19 20  1  0  0  0  0
 19 23  1  0  0  0  0
 20 21  2  0  0  0  0
 20 22  1  0  0  0  0
 28 29  1  0  0  0  0
 28 36  1  0  0  0  0
 28 37  1  0  0  0  0
 29 30  1  0  0  0  0
 29 35  1  1  0  0  0
 30 31  1  0  0  0  0
 30 33  1  0  0  0  0
 30 34  1  0  0  0  0
 31 32  1  0  0  0  0
 38 39  2  0  0  0  0
 38 44  1  0  0  0  0
 39 40  1  0  0  0  0
 39 49  1  0  0  0  0
 40 41  1  0  0  0  0
 40 42  2  0  0  0  0
 42 43  1  0  0  0  0
 42 48  1  0  0  0  0
 43 44  2  0  0  0  0
 43 47  1  0  0  0  0
 44 45  1  0  0  0  0
 45 46  2  0  0  0  0
M  END
>  <MODEL>
       3

$$$$
