best_conformers_88.pdb
 OpenBabel01292518153D

 40 42  0  0  0  0  0  0  0  0999 V2000
   -4.7190   -3.4040  -20.7930 O   0  0  0  0  0  0  0  0  0  0  0  0
   -5.8840   -3.3760  -21.1560 C   0  0  0  0  0  0  0  0  0  0  0  0
   -6.7470   -2.1300  -21.0040 C   0  0  0  0  0  0  0  0  0  0  0  0
   -6.1550   -1.2020  -19.9980 C   0  0  0  0  0  0  0  0  0  0  0  0
   -6.5320   -1.2930  -18.6860 C   0  0  0  0  0  0  0  0  0  0  0  0
   -6.0430   -0.5360  -17.6680 N   0  0  0  0  0  0  0  0  0  0  0  0
   -5.1210    0.3420  -17.9940 C   0  0  0  0  0  0  0  0  0  0  0  0
   -4.6120    0.5250  -19.3100 C   0  0  0  0  0  0  0  0  0  0  0  0
   -3.6240    1.4960  -19.6140 C   0  0  0  0  0  0  0  0  0  0  0  0
   -3.1650    1.6460  -20.8930 C   0  0  0  0  0  0  0  0  0  0  0  0
   -3.6690    0.8300  -21.9330 C   0  0  0  0  0  0  0  0  0  0  0  0
   -4.6230   -0.1190  -21.6670 C   0  0  0  0  0  0  0  0  0  0  0  0
   -5.1300   -0.2820  -20.3500 C   0  0  0  0  0  0  0  0  0  0  0  0
   -4.9960   -0.7510  -22.4700 H   0  0  0  0  0  0  0  0  0  0  0  0
   -3.3070    0.9700  -22.9500 H   0  0  0  0  0  0  0  0  0  0  0  0
   -2.4140    2.3980  -21.1260 H   0  0  0  0  0  0  0  0  0  0  0  0
   -3.2510    2.1270  -18.8090 H   0  0  0  0  0  0  0  0  0  0  0  0
   -4.7160    0.9710  -17.2000 H   0  0  0  0  0  0  0  0  0  0  0  0
   -7.2890   -2.0240  -18.3950 H   0  0  0  0  0  0  0  0  0  0  0  0
   -6.8910   -1.6660  -21.9890 H   0  0  0  0  0  0  0  0  0  0  0  0
   -7.7260   -2.4760  -20.6460 H   0  0  0  0  0  0  0  0  0  0  0  0
   -6.5220   -4.4720  -21.6490 N   0  0  0  0  0  0  0  0  0  0  0  0
   -5.9410   -5.7480  -21.2510 C   0  0  0  0  0  0  0  0  0  0  0  0
   -6.0310   -6.7500  -22.3730 C   0  0  0  0  0  0  0  0  0  0  0  0
   -7.4790   -6.7870  -22.8620 C   0  0  0  0  0  0  0  0  0  0  0  0
   -7.6460   -7.8690  -23.8830 C   0  0  0  0  0  0  0  0  0  0  0  0
   -6.8050   -7.5870  -24.9270 F   0  0  0  0  0  0  0  0  0  0  0  0
   -8.9030   -7.9390  -24.4030 F   0  0  0  0  0  0  0  0  0  0  0  0
   -7.3900   -8.8520  -23.4690 H   0  0  0  0  0  0  0  0  0  0  0  0
   -7.8990   -5.4420  -23.4330 C   0  0  0  0  0  0  0  0  0  0  0  0
   -7.8300   -4.4290  -22.3070 C   0  0  0  0  0  0  0  0  0  0  0  0
   -8.6570   -4.6510  -21.6190 H   0  0  0  0  0  0  0  0  0  0  0  0
   -8.0250   -3.4290  -22.6980 H   0  0  0  0  0  0  0  0  0  0  0  0
   -8.9170   -5.5020  -23.8350 H   0  0  0  0  0  0  0  0  0  0  0  0
   -7.2480   -5.1720  -24.2690 H   0  0  0  0  0  0  0  0  0  0  0  0
   -8.1150   -6.9920  -21.9940 H   0  0  0  0  0  0  0  0  0  0  0  0
   -5.6900   -7.7330  -22.0220 H   0  0  0  0  0  0  0  0  0  0  0  0
   -5.3800   -6.4640  -23.2040 H   0  0  0  0  0  0  0  0  0  0  0  0
   -4.9110   -5.5250  -20.9780 H   0  0  0  0  0  0  0  0  0  0  0  0
   -6.4430   -6.1480  -20.3570 H   0  0  0  0  0  0  0  0  0  0  0  0
  1  2  2  0  0  0  0
  2  3  1  0  0  0  0
  2 22  1  0  0  0  0
  3  4  1  0  0  0  0
  3 20  1  0  0  0  0
  3 21  1  0  0  0  0
  4  5  2  0  0  0  0
  4 13  1  0  0  0  0
  5  6  1  0  0  0  0
  5 19  1  0  0  0  0
  6  7  2  0  0  0  0
  7  8  1  0  0  0  0
  7 18  1  0  0  0  0
  8  9  2  0  0  0  0
  8 13  1  0  0  0  0
  9 10  1  0  0  0  0
  9 17  1  0  0  0  0
 10 11  2  0  0  0  0
 10 16  1  0  0  0  0
 11 12  1  0  0  0  0
 11 15  1  0  0  0  0
 12 13  2  0  0  0  0
 12 14  1  0  0  0  0
 22 23  1  0  0  0  0
 22 31  1  0  0  0  0
 23 24  1  0  0  0  0
 23 39  1  0  0  0  0
 23 40  1  0  0  0  0
 24 25  1  0  0  0  0
 24 37  1  0  0  0  0
 24 38  1  0  0  0  0
 25 26  1  0  0  0  0
 25 30  1  0  0  0  0
 25 36  1  0  0  0  0
 26 27  1  0  0  0  0
 26 28  1  0  0  0  0
 26 29  1  0  0  0  0
 30 31  1  0  0  0  0
 30 34  1  0  0  0  0
 30 35  1  0  0  0  0
 31 32  1  0  0  0  0
 31 33  1  0  0  0  0
M  END
>  <MODEL>
       1

$$$$
best_conformers_88.pdb
 OpenBabel01292518153D

 40 42  0  0  0  0  0  0  0  0999 V2000
   -4.7190   -3.4050  -20.7940 O   0  0  0  0  0  0  0  0  0  0  0  0
   -5.8840   -3.3760  -21.1560 C   0  0  0  0  0  0  0  0  0  0  0  0
   -6.7470   -2.1310  -21.0040 C   0  0  0  0  0  0  0  0  0  0  0  0
   -6.1550   -1.2020  -19.9980 C   0  0  0  0  0  0  0  0  0  0  0  0
   -6.5320   -1.2930  -18.6850 C   0  0  0  0  0  0  0  0  0  0  0  0
   -6.0430   -0.5360  -17.6680 N   0  0  0  0  0  0  0  0  0  0  0  0
   -5.1210    0.3420  -17.9950 C   0  0  0  0  0  0  0  0  0  0  0  0
   -4.6120    0.5250  -19.3100 C   0  0  0  0  0  0  0  0  0  0  0  0
   -3.6230    1.4960  -19.6140 C   0  0  0  0  0  0  0  0  0  0  0  0
   -3.1650    1.6460  -20.8940 C   0  0  0  0  0  0  0  0  0  0  0  0
   -3.6690    0.8300  -21.9340 C   0  0  0  0  0  0  0  0  0  0  0  0
   -4.6230   -0.1190  -21.6670 C   0  0  0  0  0  0  0  0  0  0  0  0
   -5.1300   -0.2820  -20.3500 C   0  0  0  0  0  0  0  0  0  0  0  0
   -4.9960   -0.7510  -22.4700 H   0  0  0  0  0  0  0  0  0  0  0  0
   -3.3070    0.9700  -22.9500 H   0  0  0  0  0  0  0  0  0  0  0  0
   -2.4140    2.3980  -21.1260 H   0  0  0  0  0  0  0  0  0  0  0  0
   -3.2500    2.1270  -18.8090 H   0  0  0  0  0  0  0  0  0  0  0  0
   -4.7160    0.9710  -17.2000 H   0  0  0  0  0  0  0  0  0  0  0  0
   -7.2890   -2.0240  -18.3950 H   0  0  0  0  0  0  0  0  0  0  0  0
   -7.7250   -2.4770  -20.6460 H   0  0  0  0  0  0  0  0  0  0  0  0
   -6.8910   -1.6660  -21.9890 H   0  0  0  0  0  0  0  0  0  0  0  0
   -6.5220   -4.4720  -21.6490 N   0  0  0  0  0  0  0  0  0  0  0  0
   -7.8300   -4.4290  -22.3070 C   0  0  0  0  0  0  0  0  0  0  0  0
   -7.8990   -5.4420  -23.4330 C   0  0  0  0  0  0  0  0  0  0  0  0
   -7.4790   -6.7880  -22.8610 C   0  0  0  0  0  0  0  0  0  0  0  0
   -7.6450   -7.8700  -23.8830 C   0  0  0  0  0  0  0  0  0  0  0  0
   -8.9020   -7.9400  -24.4030 F   0  0  0  0  0  0  0  0  0  0  0  0
   -6.8050   -7.5870  -24.9270 F   0  0  0  0  0  0  0  0  0  0  0  0
   -7.3900   -8.8530  -23.4690 H   0  0  0  0  0  0  0  0  0  0  0  0
   -6.0300   -6.7510  -22.3730 C   0  0  0  0  0  0  0  0  0  0  0  0
   -5.9410   -5.7490  -21.2510 C   0  0  0  0  0  0  0  0  0  0  0  0
   -6.4430   -6.1480  -20.3570 H   0  0  0  0  0  0  0  0  0  0  0  0
   -4.9110   -5.5250  -20.9780 H   0  0  0  0  0  0  0  0  0  0  0  0
   -5.3800   -6.4640  -23.2040 H   0  0  0  0  0  0  0  0  0  0  0  0
   -5.6900   -7.7340  -22.0210 H   0  0  0  0  0  0  0  0  0  0  0  0
   -8.1140   -6.9930  -21.9940 H   0  0  0  0  0  0  0  0  0  0  0  0
   -8.9170   -5.5030  -23.8340 H   0  0  0  0  0  0  0  0  0  0  0  0
   -7.2480   -5.1730  -24.2690 H   0  0  0  0  0  0  0  0  0  0  0  0
   -8.0250   -3.4290  -22.6980 H   0  0  0  0  0  0  0  0  0  0  0  0
   -8.6570   -4.6520  -21.6190 H   0  0  0  0  0  0  0  0  0  0  0  0
  1  2  2  0  0  0  0
  2  3  1  0  0  0  0
  2 22  1  0  0  0  0
  3  4  1  0  0  0  0
  3 20  1  0  0  0  0
  3 21  1  0  0  0  0
  4  5  2  0  0  0  0
  4 13  1  0  0  0  0
  5  6  1  0  0  0  0
  5 19  1  0  0  0  0
  6  7  2  0  0  0  0
  7  8  1  0  0  0  0
  7 18  1  0  0  0  0
  8  9  2  0  0  0  0
  8 13  1  0  0  0  0
  9 10  1  0  0  0  0
  9 17  1  0  0  0  0
 10 11  2  0  0  0  0
 10 16  1  0  0  0  0
 11 12  1  0  0  0  0
 11 15  1  0  0  0  0
 12 13  2  0  0  0  0
 12 14  1  0  0  0  0
 22 23  1  0  0  0  0
 22 31  1  0  0  0  0
 23 24  1  0  0  0  0
 23 39  1  0  0  0  0
 23 40  1  0  0  0  0
 24 25  1  0  0  0  0
 24 37  1  0  0  0  0
 24 38  1  0  0  0  0
 25 26  1  0  0  0  0
 25 30  1  0  0  0  0
 25 36  1  0  0  0  0
 26 27  1  0  0  0  0
 26 28  1  0  0  0  0
 26 29  1  0  0  0  0
 30 31  1  0  0  0  0
 30 34  1  0  0  0  0
 30 35  1  0  0  0  0
 31 32  1  0  0  0  0
 31 33  1  0  0  0  0
M  END
>  <MODEL>
       2

$$$$
best_conformers_88.pdb
 OpenBabel01292518153D

 40 42  0  0  0  0  0  0  0  0999 V2000
   -8.0480   -0.1620  -21.6750 O   0  0  0  0  0  0  0  0  0  0  0  0
   -7.9780   -1.3760  -21.7060 C   0  0  0  0  0  0  0  0  0  0  0  0
   -6.8120   -2.1080  -21.0360 C   0  0  0  0  0  0  0  0  0  0  0  0
   -6.1420   -1.2320  -20.0080 C   0  0  0  0  0  0  0  0  0  0  0  0
   -6.5290   -1.2960  -18.6950 C   0  0  0  0  0  0  0  0  0  0  0  0
   -6.0450   -0.5270  -17.6810 N   0  0  0  0  0  0  0  0  0  0  0  0
   -5.1210    0.3480  -18.0010 C   0  0  0  0  0  0  0  0  0  0  0  0
   -4.6260    0.5370  -19.3200 C   0  0  0  0  0  0  0  0  0  0  0  0
   -3.6320    1.5060  -19.6190 C   0  0  0  0  0  0  0  0  0  0  0  0
   -3.1860    1.6730  -20.9020 C   0  0  0  0  0  0  0  0  0  0  0  0
   -3.7190    0.8830  -21.9460 C   0  0  0  0  0  0  0  0  0  0  0  0
   -4.6850   -0.0580  -21.6840 C   0  0  0  0  0  0  0  0  0  0  0  0
   -5.1580   -0.2640  -20.3600 C   0  0  0  0  0  0  0  0  0  0  0  0
   -5.1130   -0.6360  -22.4980 H   0  0  0  0  0  0  0  0  0  0  0  0
   -3.3640    1.0270  -22.9640 H   0  0  0  0  0  0  0  0  0  0  0  0
   -2.4310    2.4230  -21.1310 H   0  0  0  0  0  0  0  0  0  0  0  0
   -3.2460    2.1200  -18.8080 H   0  0  0  0  0  0  0  0  0  0  0  0
   -4.7140    0.9700  -17.2010 H   0  0  0  0  0  0  0  0  0  0  0  0
   -7.2900   -2.0120  -18.3850 H   0  0  0  0  0  0  0  0  0  0  0  0
   -7.2080   -3.0040  -20.5430 H   0  0  0  0  0  0  0  0  0  0  0  0
   -6.1130   -2.4510  -21.8090 H   0  0  0  0  0  0  0  0  0  0  0  0
   -8.9710   -2.1320  -22.2860 N   0  0  0  0  0  0  0  0  0  0  0  0
   -8.9350   -3.5730  -22.5130 C   0  0  0  0  0  0  0  0  0  0  0  0
   -9.6560   -3.9180  -23.8160 C   0  0  0  0  0  0  0  0  0  0  0  0
  -11.0390   -3.2640  -23.9310 C   0  0  0  0  0  0  0  0  0  0  0  0
  -12.0630   -3.9820  -23.0820 C   0  0  0  0  0  0  0  0  0  0  0  0
  -13.3200   -3.5920  -23.4190 F   0  0  0  0  0  0  0  0  0  0  0  0
  -11.9270   -3.6990  -21.7480 F   0  0  0  0  0  0  0  0  0  0  0  0
  -12.0290   -5.0490  -23.2180 H   0  0  0  0  0  0  0  0  0  0  0  0
  -11.0480   -1.7820  -23.5790 C   0  0  0  0  0  0  0  0  0  0  0  0
  -10.2860   -1.5010  -22.2960 C   0  0  0  0  0  0  0  0  0  0  0  0
  -10.1130   -0.4330  -22.1790 H   0  0  0  0  0  0  0  0  0  0  0  0
  -10.8690   -1.8520  -21.4430 H   0  0  0  0  0  0  0  0  0  0  0  0
  -12.0870   -1.4540  -23.4700 H   0  0  0  0  0  0  0  0  0  0  0  0
  -10.6350   -1.1830  -24.3920 H   0  0  0  0  0  0  0  0  0  0  0  0
  -11.4010   -3.4010  -24.9570 H   0  0  0  0  0  0  0  0  0  0  0  0
   -9.0330   -3.5900  -24.6540 H   0  0  0  0  0  0  0  0  0  0  0  0
   -9.7620   -5.0090  -23.9080 H   0  0  0  0  0  0  0  0  0  0  0  0
   -9.3890   -4.1310  -21.6810 H   0  0  0  0  0  0  0  0  0  0  0  0
   -7.8930   -3.8970  -22.5960 H   0  0  0  0  0  0  0  0  0  0  0  0
  1  2  2  0  0  0  0
  2  3  1  0  0  0  0
  2 22  1  0  0  0  0
  3  4  1  0  0  0  0
  3 20  1  0  0  0  0
  3 21  1  0  0  0  0
  4  5  2  0  0  0  0
  4 13  1  0  0  0  0
  5  6  1  0  0  0  0
  5 19  1  0  0  0  0
  6  7  2  0  0  0  0
  7  8  1  0  0  0  0
  7 18  1  0  0  0  0
  8  9  2  0  0  0  0
  8 13  1  0  0  0  0
  9 10  1  0  0  0  0
  9 17  1  0  0  0  0
 10 11  2  0  0  0  0
 10 16  1  0  0  0  0
 11 12  1  0  0  0  0
 11 15  1  0  0  0  0
 12 13  2  0  0  0  0
 12 14  1  0  0  0  0
 22 23  1  0  0  0  0
 22 31  1  0  0  0  0
 23 24  1  0  0  0  0
 23 39  1  0  0  0  0
 23 40  1  0  0  0  0
 24 25  1  0  0  0  0
 24 37  1  0  0  0  0
 24 38  1  0  0  0  0
 25 26  1  0  0  0  0
 25 30  1  0  0  0  0
 25 36  1  0  0  0  0
 26 27  1  0  0  0  0
 26 28  1  0  0  0  0
 26 29  1  0  0  0  0
 30 31  1  0  0  0  0
 30 34  1  0  0  0  0
 30 35  1  0  0  0  0
 31 32  1  0  0  0  0
 31 33  1  0  0  0  0
M  END
>  <MODEL>
       3

$$$$
best_conformers_88.pdb
 OpenBabel01292518153D

 40 42  0  0  0  0  0  0  0  0999 V2000
   -8.1000   -0.1910  -21.7390 O   0  0  0  0  0  0  0  0  0  0  0  0
   -7.9430   -1.3980  -21.8130 C   0  0  0  0  0  0  0  0  0  0  0  0
   -6.8090   -2.1070  -21.0330 C   0  0  0  0  0  0  0  0  0  0  0  0
   -6.1480   -1.2120  -20.0100 C   0  0  0  0  0  0  0  0  0  0  0  0
   -6.5200   -1.2800  -18.6920 C   0  0  0  0  0  0  0  0  0  0  0  0
   -6.0240   -0.5110  -17.6850 N   0  0  0  0  0  0  0  0  0  0  0  0
   -5.1020    0.3660  -18.0060 C   0  0  0  0  0  0  0  0  0  0  0  0
   -4.6120    0.5500  -19.3260 C   0  0  0  0  0  0  0  0  0  0  0  0
   -3.6200    1.5150  -19.6280 C   0  0  0  0  0  0  0  0  0  0  0  0
   -3.1760    1.6830  -20.9100 C   0  0  0  0  0  0  0  0  0  0  0  0
   -3.7130    0.8870  -21.9530 C   0  0  0  0  0  0  0  0  0  0  0  0
   -4.6780   -0.0550  -21.6830 C   0  0  0  0  0  0  0  0  0  0  0  0
   -5.1510   -0.2530  -20.3620 C   0  0  0  0  0  0  0  0  0  0  0  0
   -5.0970   -0.6460  -22.4930 H   0  0  0  0  0  0  0  0  0  0  0  0
   -3.3650    1.0340  -22.9680 H   0  0  0  0  0  0  0  0  0  0  0  0
   -2.4240    2.4300  -21.1410 H   0  0  0  0  0  0  0  0  0  0  0  0
   -3.2290    2.1270  -18.8170 H   0  0  0  0  0  0  0  0  0  0  0  0
   -4.6990    0.9780  -17.1980 H   0  0  0  0  0  0  0  0  0  0  0  0
   -7.2740   -1.9930  -18.3670 H   0  0  0  0  0  0  0  0  0  0  0  0
   -7.2330   -2.9830  -20.5250 H   0  0  0  0  0  0  0  0  0  0  0  0
   -6.0590   -2.5050  -21.7330 H   0  0  0  0  0  0  0  0  0  0  0  0
   -8.7790   -2.1800  -22.5660 N   0  0  0  0  0  0  0  0  0  0  0  0
   -8.4750   -3.5560  -22.9450 C   0  0  0  0  0  0  0  0  0  0  0  0
   -9.4000   -4.0350  -24.0550 C   0  0  0  0  0  0  0  0  0  0  0  0
  -10.8660   -3.9060  -23.6380 C   0  0  0  0  0  0  0  0  0  0  0  0
  -11.7470   -4.1640  -24.8320 C   0  0  0  0  0  0  0  0  0  0  0  0
  -11.4890   -5.3730  -25.4060 F   0  0  0  0  0  0  0  0  0  0  0  0
  -11.4710   -3.1770  -25.7430 F   0  0  0  0  0  0  0  0  0  0  0  0
  -12.8100   -4.1710  -24.5630 H   0  0  0  0  0  0  0  0  0  0  0  0
  -11.1690   -2.5140  -23.0430 C   0  0  0  0  0  0  0  0  0  0  0  0
   -9.9770   -1.5590  -23.1300 C   0  0  0  0  0  0  0  0  0  0  0  0
   -9.8010   -1.2530  -24.1740 H   0  0  0  0  0  0  0  0  0  0  0  0
  -10.1610   -0.6520  -22.5540 H   0  0  0  0  0  0  0  0  0  0  0  0
  -12.0270   -2.0550  -23.5490 H   0  0  0  0  0  0  0  0  0  0  0  0
  -11.4460   -2.6470  -21.9940 H   0  0  0  0  0  0  0  0  0  0  0  0
  -11.1280   -4.6670  -22.8970 H   0  0  0  0  0  0  0  0  0  0  0  0
   -9.1880   -5.0860  -24.2620 H   0  0  0  0  0  0  0  0  0  0  0  0
   -9.2140   -3.4880  -24.9890 H   0  0  0  0  0  0  0  0  0  0  0  0
   -8.5870   -4.2280  -22.0820 H   0  0  0  0  0  0  0  0  0  0  0  0
   -7.4370   -3.6200  -23.2900 H   0  0  0  0  0  0  0  0  0  0  0  0
  1  2  2  0  0  0  0
  2  3  1  0  0  0  0
  2 22  1  0  0  0  0
  3  4  1  0  0  0  0
  3 20  1  0  0  0  0
  3 21  1  0  0  0  0
  4  5  2  0  0  0  0
  4 13  1  0  0  0  0
  5  6  1  0  0  0  0
  5 19  1  0  0  0  0
  6  7  2  0  0  0  0
  7  8  1  0  0  0  0
  7 18  1  0  0  0  0
  8  9  2  0  0  0  0
  8 13  1  0  0  0  0
  9 10  1  0  0  0  0
  9 17  1  0  0  0  0
 10 11  2  0  0  0  0
 10 16  1  0  0  0  0
 11 12  1  0  0  0  0
 11 15  1  0  0  0  0
 12 13  2  0  0  0  0
 12 14  1  0  0  0  0
 22 23  1  0  0  0  0
 22 31  1  0  0  0  0
 23 24  1  0  0  0  0
 23 39  1  0  0  0  0
 23 40  1  0  0  0  0
 24 25  1  0  0  0  0
 24 37  1  0  0  0  0
 24 38  1  0  0  0  0
 25 26  1  0  0  0  0
 25 30  1  0  0  0  0
 25 36  1  0  0  0  0
 26 27  1  0  0  0  0
 26 28  1  0  0  0  0
 26 29  1  0  0  0  0
 30 31  1  0  0  0  0
 30 34  1  0  0  0  0
 30 35  1  0  0  0  0
 31 32  1  0  0  0  0
 31 33  1  0  0  0  0
M  END
>  <MODEL>
       4

$$$$
best_conformers_88.pdb
 OpenBabel01292518153D

 40 42  0  0  0  0  0  0  0  0999 V2000
   -8.7860   -0.7590  -21.1970 O   0  0  0  0  0  0  0  0  0  0  0  0
   -7.8560   -1.2610  -21.7890 C   0  0  0  0  0  0  0  0  0  0  0  0
   -6.8010   -2.0910  -21.0370 C   0  0  0  0  0  0  0  0  0  0  0  0
   -6.1300   -1.2170  -19.9960 C   0  0  0  0  0  0  0  0  0  0  0  0
   -6.5110   -1.2760  -18.6810 C   0  0  0  0  0  0  0  0  0  0  0  0
   -6.0170   -0.5060  -17.6730 N   0  0  0  0  0  0  0  0  0  0  0  0
   -5.0950    0.3690  -17.9990 C   0  0  0  0  0  0  0  0  0  0  0  0
   -4.6070    0.5530  -19.3220 C   0  0  0  0  0  0  0  0  0  0  0  0
   -3.6180    1.5220  -19.6310 C   0  0  0  0  0  0  0  0  0  0  0  0
   -3.1760    1.6880  -20.9150 C   0  0  0  0  0  0  0  0  0  0  0  0
   -3.7060    0.8880  -21.9510 C   0  0  0  0  0  0  0  0  0  0  0  0
   -4.6630   -0.0610  -21.6790 C   0  0  0  0  0  0  0  0  0  0  0  0
   -5.1410   -0.2550  -20.3560 C   0  0  0  0  0  0  0  0  0  0  0  0
   -5.0540   -0.6690  -22.4870 H   0  0  0  0  0  0  0  0  0  0  0  0
   -3.3520    1.0260  -22.9700 H   0  0  0  0  0  0  0  0  0  0  0  0
   -2.4230    2.4390  -21.1480 H   0  0  0  0  0  0  0  0  0  0  0  0
   -3.2240    2.1400  -18.8260 H   0  0  0  0  0  0  0  0  0  0  0  0
   -4.6900    0.9890  -17.1960 H   0  0  0  0  0  0  0  0  0  0  0  0
   -7.2700   -1.9880  -18.3630 H   0  0  0  0  0  0  0  0  0  0  0  0
   -7.3190   -2.9100  -20.5250 H   0  0  0  0  0  0  0  0  0  0  0  0
   -6.0620   -2.5230  -21.7240 H   0  0  0  0  0  0  0  0  0  0  0  0
   -7.6170   -1.0320  -23.1480 N   0  0  0  0  0  0  0  0  0  0  0  0
   -7.4660   -2.1110  -24.1150 C   0  0  0  0  0  0  0  0  0  0  0  0
   -6.4810   -1.7210  -25.2040 C   0  0  0  0  0  0  0  0  0  0  0  0
   -6.8850   -0.3990  -25.8520 C   0  0  0  0  0  0  0  0  0  0  0  0
   -5.8950   -0.0070  -26.9330 C   0  0  0  0  0  0  0  0  0  0  0  0
   -4.6700    0.2470  -26.3790 F   0  0  0  0  0  0  0  0  0  0  0  0
   -6.2950    1.1370  -27.5610 F   0  0  0  0  0  0  0  0  0  0  0  0
   -5.7590   -0.7820  -27.7030 H   0  0  0  0  0  0  0  0  0  0  0  0
   -7.0500    0.6870  -24.7910 C   0  0  0  0  0  0  0  0  0  0  0  0
   -8.0340    0.2450  -23.7100 C   0  0  0  0  0  0  0  0  0  0  0  0
   -9.0530    0.2060  -24.1240 H   0  0  0  0  0  0  0  0  0  0  0  0
   -8.0590    0.9660  -22.8930 H   0  0  0  0  0  0  0  0  0  0  0  0
   -7.3840    1.6200  -25.2530 H   0  0  0  0  0  0  0  0  0  0  0  0
   -6.0780    0.9000  -24.3300 H   0  0  0  0  0  0  0  0  0  0  0  0
   -7.8420   -0.5250  -26.3740 H   0  0  0  0  0  0  0  0  0  0  0  0
   -5.4810   -1.6220  -24.7710 H   0  0  0  0  0  0  0  0  0  0  0  0
   -6.4230   -2.5090  -25.9620 H   0  0  0  0  0  0  0  0  0  0  0  0
   -8.4320   -2.3650  -24.5860 H   0  0  0  0  0  0  0  0  0  0  0  0
   -7.1380   -3.0060  -23.5920 H   0  0  0  0  0  0  0  0  0  0  0  0
  1  2  2  0  0  0  0
  2  3  1  0  0  0  0
  2 22  1  0  0  0  0
  3  4  1  0  0  0  0
  3 20  1  0  0  0  0
  3 21  1  0  0  0  0
  4  5  2  0  0  0  0
  4 13  1  0  0  0  0
  5  6  1  0  0  0  0
  5 19  1  0  0  0  0
  6  7  2  0  0  0  0
  7  8  1  0  0  0  0
  7 18  1  0  0  0  0
  8  9  2  0  0  0  0
  8 13  1  0  0  0  0
  9 10  1  0  0  0  0
  9 17  1  0  0  0  0
 10 11  2  0  0  0  0
 10 16  1  0  0  0  0
 11 12  1  0  0  0  0
 11 15  1  0  0  0  0
 12 13  2  0  0  0  0
 12 14  1  0  0  0  0
 22 23  1  0  0  0  0
 22 31  1  0  0  0  0
 23 24  1  0  0  0  0
 23 39  1  0  0  0  0
 23 40  1  0  0  0  0
 24 25  1  0  0  0  0
 24 37  1  0  0  0  0
 24 38  1  0  0  0  0
 25 26  1  0  0  0  0
 25 30  1  0  0  0  0
 25 36  1  0  0  0  0
 26 27  1  0  0  0  0
 26 28  1  0  0  0  0
 26 29  1  0  0  0  0
 30 31  1  0  0  0  0
 30 34  1  0  0  0  0
 30 35  1  0  0  0  0
 31 32  1  0  0  0  0
 31 33  1  0  0  0  0
M  END
>  <MODEL>
       5

$$$$
best_conformers_88.pdb
 OpenBabel01292518153D

 40 42  0  0  0  0  0  0  0  0999 V2000
   -8.7860   -0.7600  -21.1970 O   0  0  0  0  0  0  0  0  0  0  0  0
   -7.8560   -1.2610  -21.7890 C   0  0  0  0  0  0  0  0  0  0  0  0
   -6.8010   -2.0910  -21.0370 C   0  0  0  0  0  0  0  0  0  0  0  0
   -6.1300   -1.2170  -19.9960 C   0  0  0  0  0  0  0  0  0  0  0  0
   -6.5110   -1.2760  -18.6810 C   0  0  0  0  0  0  0  0  0  0  0  0
   -6.0170   -0.5060  -17.6730 N   0  0  0  0  0  0  0  0  0  0  0  0
   -5.0950    0.3690  -17.9990 C   0  0  0  0  0  0  0  0  0  0  0  0
   -4.6070    0.5530  -19.3220 C   0  0  0  0  0  0  0  0  0  0  0  0
   -3.6180    1.5220  -19.6310 C   0  0  0  0  0  0  0  0  0  0  0  0
   -3.1760    1.6880  -20.9150 C   0  0  0  0  0  0  0  0  0  0  0  0
   -3.7060    0.8880  -21.9510 C   0  0  0  0  0  0  0  0  0  0  0  0
   -4.6630   -0.0610  -21.6790 C   0  0  0  0  0  0  0  0  0  0  0  0
   -5.1410   -0.2550  -20.3560 C   0  0  0  0  0  0  0  0  0  0  0  0
   -5.0540   -0.6690  -22.4880 H   0  0  0  0  0  0  0  0  0  0  0  0
   -3.3520    1.0260  -22.9700 H   0  0  0  0  0  0  0  0  0  0  0  0
   -2.4230    2.4390  -21.1480 H   0  0  0  0  0  0  0  0  0  0  0  0
   -3.2240    2.1400  -18.8260 H   0  0  0  0  0  0  0  0  0  0  0  0
   -4.6900    0.9890  -17.1960 H   0  0  0  0  0  0  0  0  0  0  0  0
   -7.2700   -1.9880  -18.3630 H   0  0  0  0  0  0  0  0  0  0  0  0
   -7.3190   -2.9100  -20.5250 H   0  0  0  0  0  0  0  0  0  0  0  0
   -6.0620   -2.5230  -21.7240 H   0  0  0  0  0  0  0  0  0  0  0  0
   -7.6170   -1.0320  -23.1480 N   0  0  0  0  0  0  0  0  0  0  0  0
   -8.0340    0.2450  -23.7100 C   0  0  0  0  0  0  0  0  0  0  0  0
   -7.0500    0.6870  -24.7900 C   0  0  0  0  0  0  0  0  0  0  0  0
   -6.8850   -0.3990  -25.8520 C   0  0  0  0  0  0  0  0  0  0  0  0
   -5.8950   -0.0070  -26.9330 C   0  0  0  0  0  0  0  0  0  0  0  0
   -4.6710    0.2480  -26.3790 F   0  0  0  0  0  0  0  0  0  0  0  0
   -6.2950    1.1380  -27.5610 F   0  0  0  0  0  0  0  0  0  0  0  0
   -5.7590   -0.7810  -27.7030 H   0  0  0  0  0  0  0  0  0  0  0  0
   -6.4810   -1.7200  -25.2040 C   0  0  0  0  0  0  0  0  0  0  0  0
   -7.4660   -2.1110  -24.1150 C   0  0  0  0  0  0  0  0  0  0  0  0
   -8.4320   -2.3650  -24.5860 H   0  0  0  0  0  0  0  0  0  0  0  0
   -7.1380   -3.0060  -23.5920 H   0  0  0  0  0  0  0  0  0  0  0  0
   -6.4240   -2.5080  -25.9620 H   0  0  0  0  0  0  0  0  0  0  0  0
   -5.4810   -1.6220  -24.7710 H   0  0  0  0  0  0  0  0  0  0  0  0
   -7.8420   -0.5250  -26.3740 H   0  0  0  0  0  0  0  0  0  0  0  0
   -7.3840    1.6210  -25.2530 H   0  0  0  0  0  0  0  0  0  0  0  0
   -6.0780    0.9000  -24.3300 H   0  0  0  0  0  0  0  0  0  0  0  0
   -8.0590    0.9660  -22.8930 H   0  0  0  0  0  0  0  0  0  0  0  0
   -9.0530    0.2070  -24.1240 H   0  0  0  0  0  0  0  0  0  0  0  0
  1  2  2  0  0  0  0
  2  3  1  0  0  0  0
  2 22  1  0  0  0  0
  3  4  1  0  0  0  0
  3 20  1  0  0  0  0
  3 21  1  0  0  0  0
  4  5  2  0  0  0  0
  4 13  1  0  0  0  0
  5  6  1  0  0  0  0
  5 19  1  0  0  0  0
  6  7  2  0  0  0  0
  7  8  1  0  0  0  0
  7 18  1  0  0  0  0
  8  9  2  0  0  0  0
  8 13  1  0  0  0  0
  9 10  1  0  0  0  0
  9 17  1  0  0  0  0
 10 11  2  0  0  0  0
 10 16  1  0  0  0  0
 11 12  1  0  0  0  0
 11 15  1  0  0  0  0
 12 13  2  0  0  0  0
 12 14  1  0  0  0  0
 22 23  1  0  0  0  0
 22 31  1  0  0  0  0
 23 24  1  0  0  0  0
 23 39  1  0  0  0  0
 23 40  1  0  0  0  0
 24 25  1  0  0  0  0
 24 37  1  0  0  0  0
 24 38  1  0  0  0  0
 25 26  1  0  0  0  0
 25 30  1  0  0  0  0
 25 36  1  0  0  0  0
 26 27  1  0  0  0  0
 26 28  1  0  0  0  0
 26 29  1  0  0  0  0
 30 31  1  0  0  0  0
 30 34  1  0  0  0  0
 30 35  1  0  0  0  0
 31 32  1  0  0  0  0
 31 33  1  0  0  0  0
M  END
>  <MODEL>
       6

$$$$
best_conformers_88.pdb
 OpenBabel01292518153D

 40 42  0  0  0  0  0  0  0  0999 V2000
   -8.6840   -0.6510  -21.2460 O   0  0  0  0  0  0  0  0  0  0  0  0
   -7.8350   -1.2840  -21.8410 C   0  0  0  0  0  0  0  0  0  0  0  0
   -6.7900   -2.0910  -21.0390 C   0  0  0  0  0  0  0  0  0  0  0  0
   -6.1300   -1.2150  -19.9950 C   0  0  0  0  0  0  0  0  0  0  0  0
   -6.5110   -1.2750  -18.6800 C   0  0  0  0  0  0  0  0  0  0  0  0
   -6.0170   -0.5060  -17.6710 N   0  0  0  0  0  0  0  0  0  0  0  0
   -5.0950    0.3690  -17.9980 C   0  0  0  0  0  0  0  0  0  0  0  0
   -4.6050    0.5530  -19.3210 C   0  0  0  0  0  0  0  0  0  0  0  0
   -3.6150    1.5220  -19.6280 C   0  0  0  0  0  0  0  0  0  0  0  0
   -3.1710    1.6850  -20.9140 C   0  0  0  0  0  0  0  0  0  0  0  0
   -3.7040    0.8850  -21.9500 C   0  0  0  0  0  0  0  0  0  0  0  0
   -4.6630   -0.0610  -21.6800 C   0  0  0  0  0  0  0  0  0  0  0  0
   -5.1380   -0.2550  -20.3540 C   0  0  0  0  0  0  0  0  0  0  0  0
   -5.0620   -0.6640  -22.4920 H   0  0  0  0  0  0  0  0  0  0  0  0
   -3.3520    1.0250  -22.9690 H   0  0  0  0  0  0  0  0  0  0  0  0
   -2.4170    2.4340  -21.1480 H   0  0  0  0  0  0  0  0  0  0  0  0
   -3.2200    2.1390  -18.8250 H   0  0  0  0  0  0  0  0  0  0  0  0
   -4.6890    0.9900  -17.1970 H   0  0  0  0  0  0  0  0  0  0  0  0
   -7.2710   -1.9890  -18.3650 H   0  0  0  0  0  0  0  0  0  0  0  0
   -7.3310   -2.8970  -20.5280 H   0  0  0  0  0  0  0  0  0  0  0  0
   -6.0340   -2.5550  -21.6860 H   0  0  0  0  0  0  0  0  0  0  0  0
   -7.7530   -1.2720  -23.2300 N   0  0  0  0  0  0  0  0  0  0  0  0
   -7.8690    0.0160  -23.9120 C   0  0  0  0  0  0  0  0  0  0  0  0
   -8.6170   -0.1070  -25.2340 C   0  0  0  0  0  0  0  0  0  0  0  0
   -8.0860   -1.2240  -26.1330 C   0  0  0  0  0  0  0  0  0  0  0  0
   -6.7980   -0.8770  -26.8600 C   0  0  0  0  0  0  0  0  0  0  0  0
   -6.9820    0.2280  -27.6400 F   0  0  0  0  0  0  0  0  0  0  0  0
   -5.7870   -0.5780  -25.9880 F   0  0  0  0  0  0  0  0  0  0  0  0
   -6.4430   -1.6910  -27.5080 H   0  0  0  0  0  0  0  0  0  0  0  0
   -7.9710   -2.5200  -25.3370 C   0  0  0  0  0  0  0  0  0  0  0  0
   -7.2100   -2.3680  -24.0170 C   0  0  0  0  0  0  0  0  0  0  0  0
   -7.3330   -3.2880  -23.4420 H   0  0  0  0  0  0  0  0  0  0  0  0
   -6.1370   -2.2440  -24.2180 H   0  0  0  0  0  0  0  0  0  0  0  0
   -8.9800   -2.8820  -25.1230 H   0  0  0  0  0  0  0  0  0  0  0  0
   -7.4940   -3.2910  -25.9490 H   0  0  0  0  0  0  0  0  0  0  0  0
   -8.7980   -1.3710  -26.9540 H   0  0  0  0  0  0  0  0  0  0  0  0
   -8.5900    0.8460  -25.7720 H   0  0  0  0  0  0  0  0  0  0  0  0
   -9.6690   -0.3130  -25.0160 H   0  0  0  0  0  0  0  0  0  0  0  0
   -8.4090    0.6850  -23.2400 H   0  0  0  0  0  0  0  0  0  0  0  0
   -6.8750    0.4530  -24.0840 H   0  0  0  0  0  0  0  0  0  0  0  0
  1  2  2  0  0  0  0
  2  3  1  0  0  0  0
  2 22  1  0  0  0  0
  3  4  1  0  0  0  0
  3 20  1  0  0  0  0
  3 21  1  0  0  0  0
  4  5  2  0  0  0  0
  4 13  1  0  0  0  0
  5  6  1  0  0  0  0
  5 19  1  0  0  0  0
  6  7  2  0  0  0  0
  7  8  1  0  0  0  0
  7 18  1  0  0  0  0
  8  9  2  0  0  0  0
  8 13  1  0  0  0  0
  9 10  1  0  0  0  0
  9 17  1  0  0  0  0
 10 11  2  0  0  0  0
 10 16  1  0  0  0  0
 11 12  1  0  0  0  0
 11 15  1  0  0  0  0
 12 13  2  0  0  0  0
 12 14  1  0  0  0  0
 22 23  1  0  0  0  0
 22 31  1  0  0  0  0
 23 24  1  0  0  0  0
 23 39  1  0  0  0  0
 23 40  1  0  0  0  0
 24 25  1  0  0  0  0
 24 37  1  0  0  0  0
 24 38  1  0  0  0  0
 25 26  1  0  0  0  0
 25 30  1  0  0  0  0
 25 36  1  0  0  0  0
 26 27  1  0  0  0  0
 26 28  1  0  0  0  0
 26 29  1  0  0  0  0
 30 31  1  0  0  0  0
 30 34  1  0  0  0  0
 30 35  1  0  0  0  0
 31 32  1  0  0  0  0
 31 33  1  0  0  0  0
M  END
>  <MODEL>
       7

$$$$
best_conformers_88.pdb
 OpenBabel01292518153D

 40 42  0  0  0  0  0  0  0  0999 V2000
   -8.6810   -0.6480  -21.2500 O   0  0  0  0  0  0  0  0  0  0  0  0
   -7.8330   -1.2840  -21.8430 C   0  0  0  0  0  0  0  0  0  0  0  0
   -6.7900   -2.0910  -21.0390 C   0  0  0  0  0  0  0  0  0  0  0  0
   -6.1300   -1.2150  -19.9950 C   0  0  0  0  0  0  0  0  0  0  0  0
   -6.5110   -1.2750  -18.6800 C   0  0  0  0  0  0  0  0  0  0  0  0
   -6.0170   -0.5060  -17.6710 N   0  0  0  0  0  0  0  0  0  0  0  0
   -5.0950    0.3690  -17.9980 C   0  0  0  0  0  0  0  0  0  0  0  0
   -4.6050    0.5530  -19.3210 C   0  0  0  0  0  0  0  0  0  0  0  0
   -3.6150    1.5220  -19.6280 C   0  0  0  0  0  0  0  0  0  0  0  0
   -3.1710    1.6850  -20.9130 C   0  0  0  0  0  0  0  0  0  0  0  0
   -3.7040    0.8850  -21.9500 C   0  0  0  0  0  0  0  0  0  0  0  0
   -4.6630   -0.0610  -21.6800 C   0  0  0  0  0  0  0  0  0  0  0  0
   -5.1380   -0.2550  -20.3540 C   0  0  0  0  0  0  0  0  0  0  0  0
   -5.0630   -0.6640  -22.4930 H   0  0  0  0  0  0  0  0  0  0  0  0
   -3.3520    1.0250  -22.9680 H   0  0  0  0  0  0  0  0  0  0  0  0
   -2.4170    2.4340  -21.1480 H   0  0  0  0  0  0  0  0  0  0  0  0
   -3.2200    2.1390  -18.8250 H   0  0  0  0  0  0  0  0  0  0  0  0
   -4.6890    0.9900  -17.1970 H   0  0  0  0  0  0  0  0  0  0  0  0
   -7.2710   -1.9890  -18.3650 H   0  0  0  0  0  0  0  0  0  0  0  0
   -6.0340   -2.5570  -21.6860 H   0  0  0  0  0  0  0  0  0  0  0  0
   -7.3310   -2.8960  -20.5280 H   0  0  0  0  0  0  0  0  0  0  0  0
   -7.7510   -1.2760  -23.2320 N   0  0  0  0  0  0  0  0  0  0  0  0
   -7.8700    0.0080  -23.9190 C   0  0  0  0  0  0  0  0  0  0  0  0
   -8.6330   -0.1250  -25.2290 C   0  0  0  0  0  0  0  0  0  0  0  0
   -8.0960   -1.2310  -26.1330 C   0  0  0  0  0  0  0  0  0  0  0  0
   -6.8290   -0.8210  -26.8640 C   0  0  0  0  0  0  0  0  0  0  0  0
   -5.7770   -0.6600  -26.0040 F   0  0  0  0  0  0  0  0  0  0  0  0
   -6.4650   -1.7930  -27.7510 F   0  0  0  0  0  0  0  0  0  0  0  0
   -6.9430    0.1190  -27.4220 H   0  0  0  0  0  0  0  0  0  0  0  0
   -7.9620   -2.5300  -25.3410 C   0  0  0  0  0  0  0  0  0  0  0  0
   -7.2090   -2.3750  -24.0150 C   0  0  0  0  0  0  0  0  0  0  0  0
   -7.3350   -3.2940  -23.4390 H   0  0  0  0  0  0  0  0  0  0  0  0
   -6.1360   -2.2520  -24.2120 H   0  0  0  0  0  0  0  0  0  0  0  0
   -7.4750   -3.2920  -25.9560 H   0  0  0  0  0  0  0  0  0  0  0  0
   -8.9690   -2.9020  -25.1260 H   0  0  0  0  0  0  0  0  0  0  0  0
   -8.8070   -1.3990  -26.9520 H   0  0  0  0  0  0  0  0  0  0  0  0
   -9.6800   -0.3390  -25.0040 H   0  0  0  0  0  0  0  0  0  0  0  0
   -8.6240    0.8300  -25.7660 H   0  0  0  0  0  0  0  0  0  0  0  0
   -8.4000    0.6820  -23.2440 H   0  0  0  0  0  0  0  0  0  0  0  0
   -6.8770    0.4430  -24.1060 H   0  0  0  0  0  0  0  0  0  0  0  0
  1  2  2  0  0  0  0
  2  3  1  0  0  0  0
  2 22  1  0  0  0  0
  3  4  1  0  0  0  0
  3 20  1  0  0  0  0
  3 21  1  0  0  0  0
  4  5  2  0  0  0  0
  4 13  1  0  0  0  0
  5  6  1  0  0  0  0
  5 19  1  0  0  0  0
  6  7  2  0  0  0  0
  7  8  1  0  0  0  0
  7 18  1  0  0  0  0
  8  9  2  0  0  0  0
  8 13  1  0  0  0  0
  9 10  1  0  0  0  0
  9 17  1  0  0  0  0
 10 11  2  0  0  0  0
 10 16  1  0  0  0  0
 11 12  1  0  0  0  0
 11 15  1  0  0  0  0
 12 13  2  0  0  0  0
 12 14  1  0  0  0  0
 22 23  1  0  0  0  0
 22 31  1  0  0  0  0
 23 24  1  0  0  0  0
 23 39  1  0  0  0  0
 23 40  1  0  0  0  0
 24 25  1  0  0  0  0
 24 37  1  0  0  0  0
 24 38  1  0  0  0  0
 25 26  1  0  0  0  0
 25 30  1  0  0  0  0
 25 36  1  0  0  0  0
 26 27  1  0  0  0  0
 26 28  1  0  0  0  0
 26 29  1  0  0  0  0
 30 31  1  0  0  0  0
 30 34  1  0  0  0  0
 30 35  1  0  0  0  0
 31 32  1  0  0  0  0
 31 33  1  0  0  0  0
M  END
>  <MODEL>
       8

$$$$
best_conformers_88.pdb
 OpenBabel01292518153D

 40 42  0  0  0  0  0  0  0  0999 V2000
   -8.7810   -0.7540  -21.2020 O   0  0  0  0  0  0  0  0  0  0  0  0
   -7.8530   -1.2620  -21.7930 C   0  0  0  0  0  0  0  0  0  0  0  0
   -6.8010   -2.0910  -21.0370 C   0  0  0  0  0  0  0  0  0  0  0  0
   -6.1300   -1.2170  -19.9950 C   0  0  0  0  0  0  0  0  0  0  0  0
   -6.5110   -1.2760  -18.6810 C   0  0  0  0  0  0  0  0  0  0  0  0
   -6.0170   -0.5060  -17.6720 N   0  0  0  0  0  0  0  0  0  0  0  0
   -5.0950    0.3690  -17.9990 C   0  0  0  0  0  0  0  0  0  0  0  0
   -4.6070    0.5530  -19.3210 C   0  0  0  0  0  0  0  0  0  0  0  0
   -3.6180    1.5230  -19.6300 C   0  0  0  0  0  0  0  0  0  0  0  0
   -3.1750    1.6880  -20.9150 C   0  0  0  0  0  0  0  0  0  0  0  0
   -3.7060    0.8870  -21.9500 C   0  0  0  0  0  0  0  0  0  0  0  0
   -4.6620   -0.0610  -21.6770 C   0  0  0  0  0  0  0  0  0  0  0  0
   -5.1410   -0.2550  -20.3550 C   0  0  0  0  0  0  0  0  0  0  0  0
   -5.0540   -0.6690  -22.4850 H   0  0  0  0  0  0  0  0  0  0  0  0
   -3.3530    1.0260  -22.9690 H   0  0  0  0  0  0  0  0  0  0  0  0
   -2.4230    2.4390  -21.1480 H   0  0  0  0  0  0  0  0  0  0  0  0
   -3.2240    2.1400  -18.8260 H   0  0  0  0  0  0  0  0  0  0  0  0
   -4.6900    0.9890  -17.1960 H   0  0  0  0  0  0  0  0  0  0  0  0
   -7.2700   -1.9880  -18.3630 H   0  0  0  0  0  0  0  0  0  0  0  0
   -7.3200   -2.9090  -20.5250 H   0  0  0  0  0  0  0  0  0  0  0  0
   -6.0610   -2.5240  -21.7220 H   0  0  0  0  0  0  0  0  0  0  0  0
   -7.6130   -1.0410  -23.1530 N   0  0  0  0  0  0  0  0  0  0  0  0
   -8.0320    0.2320  -23.7230 C   0  0  0  0  0  0  0  0  0  0  0  0
   -7.0550    0.6620  -24.8130 C   0  0  0  0  0  0  0  0  0  0  0  0
   -6.8930   -0.4280  -25.8700 C   0  0  0  0  0  0  0  0  0  0  0  0
   -5.8790   -0.0200  -26.9220 C   0  0  0  0  0  0  0  0  0  0  0  0
   -6.2600    1.1360  -27.5410 F   0  0  0  0  0  0  0  0  0  0  0  0
   -5.7730   -0.9800  -27.8890 F   0  0  0  0  0  0  0  0  0  0  0  0
   -4.8760    0.1410  -26.5040 H   0  0  0  0  0  0  0  0  0  0  0  0
   -6.4890   -1.7460  -25.2140 C   0  0  0  0  0  0  0  0  0  0  0  0
   -7.4690   -2.1270  -24.1150 C   0  0  0  0  0  0  0  0  0  0  0  0
   -8.4350   -2.3820  -24.5810 H   0  0  0  0  0  0  0  0  0  0  0  0
   -7.1380   -3.0180  -23.5870 H   0  0  0  0  0  0  0  0  0  0  0  0
   -6.4300   -2.5400  -25.9650 H   0  0  0  0  0  0  0  0  0  0  0  0
   -5.4900   -1.6480  -24.7750 H   0  0  0  0  0  0  0  0  0  0  0  0
   -7.8470   -0.5610  -26.3980 H   0  0  0  0  0  0  0  0  0  0  0  0
   -6.0820    0.8780  -24.3520 H   0  0  0  0  0  0  0  0  0  0  0  0
   -7.3860    1.5940  -25.2780 H   0  0  0  0  0  0  0  0  0  0  0  0
   -8.0500    0.9610  -22.9150 H   0  0  0  0  0  0  0  0  0  0  0  0
   -9.0520    0.1930  -24.1330 H   0  0  0  0  0  0  0  0  0  0  0  0
  1  2  2  0  0  0  0
  2  3  1  0  0  0  0
  2 22  1  0  0  0  0
  3  4  1  0  0  0  0
  3 20  1  0  0  0  0
  3 21  1  0  0  0  0
  4  5  2  0  0  0  0
  4 13  1  0  0  0  0
  5  6  1  0  0  0  0
  5 19  1  0  0  0  0
  6  7  2  0  0  0  0
  7  8  1  0  0  0  0
  7 18  1  0  0  0  0
  8  9  2  0  0  0  0
  8 13  1  0  0  0  0
  9 10  1  0  0  0  0
  9 17  1  0  0  0  0
 10 11  2  0  0  0  0
 10 16  1  0  0  0  0
 11 12  1  0  0  0  0
 11 15  1  0  0  0  0
 12 13  2  0  0  0  0
 12 14  1  0  0  0  0
 22 23  1  0  0  0  0
 22 31  1  0  0  0  0
 23 24  1  0  0  0  0
 23 39  1  0  0  0  0
 23 40  1  0  0  0  0
 24 25  1  0  0  0  0
 24 37  1  0  0  0  0
 24 38  1  0  0  0  0
 25 26  1  0  0  0  0
 25 30  1  0  0  0  0
 25 36  1  0  0  0  0
 26 27  1  0  0  0  0
 26 28  1  0  0  0  0
 26 29  1  0  0  0  0
 30 31  1  0  0  0  0
 30 34  1  0  0  0  0
 30 35  1  0  0  0  0
 31 32  1  0  0  0  0
 31 33  1  0  0  0  0
M  END
>  <MODEL>
       9

$$$$
best_conformers_88.pdb
 OpenBabel01292518153D

 40 42  0  0  0  0  0  0  0  0999 V2000
   -8.7810   -0.7540  -21.2020 O   0  0  0  0  0  0  0  0  0  0  0  0
   -7.8530   -1.2620  -21.7930 C   0  0  0  0  0  0  0  0  0  0  0  0
   -6.8010   -2.0910  -21.0370 C   0  0  0  0  0  0  0  0  0  0  0  0
   -6.1300   -1.2170  -19.9950 C   0  0  0  0  0  0  0  0  0  0  0  0
   -6.5110   -1.2760  -18.6810 C   0  0  0  0  0  0  0  0  0  0  0  0
   -6.0170   -0.5060  -17.6720 N   0  0  0  0  0  0  0  0  0  0  0  0
   -5.0950    0.3690  -17.9990 C   0  0  0  0  0  0  0  0  0  0  0  0
   -4.6070    0.5530  -19.3210 C   0  0  0  0  0  0  0  0  0  0  0  0
   -3.6180    1.5230  -19.6300 C   0  0  0  0  0  0  0  0  0  0  0  0
   -3.1750    1.6880  -20.9150 C   0  0  0  0  0  0  0  0  0  0  0  0
   -3.7060    0.8870  -21.9500 C   0  0  0  0  0  0  0  0  0  0  0  0
   -4.6620   -0.0610  -21.6770 C   0  0  0  0  0  0  0  0  0  0  0  0
   -5.1410   -0.2550  -20.3550 C   0  0  0  0  0  0  0  0  0  0  0  0
   -5.0540   -0.6690  -22.4850 H   0  0  0  0  0  0  0  0  0  0  0  0
   -3.3530    1.0260  -22.9690 H   0  0  0  0  0  0  0  0  0  0  0  0
   -2.4230    2.4390  -21.1480 H   0  0  0  0  0  0  0  0  0  0  0  0
   -3.2240    2.1400  -18.8260 H   0  0  0  0  0  0  0  0  0  0  0  0
   -4.6900    0.9890  -17.1960 H   0  0  0  0  0  0  0  0  0  0  0  0
   -7.2700   -1.9880  -18.3630 H   0  0  0  0  0  0  0  0  0  0  0  0
   -7.3200   -2.9090  -20.5250 H   0  0  0  0  0  0  0  0  0  0  0  0
   -6.0600   -2.5240  -21.7220 H   0  0  0  0  0  0  0  0  0  0  0  0
   -7.6130   -1.0410  -23.1520 N   0  0  0  0  0  0  0  0  0  0  0  0
   -7.4690   -2.1260  -24.1150 C   0  0  0  0  0  0  0  0  0  0  0  0
   -6.4890   -1.7460  -25.2140 C   0  0  0  0  0  0  0  0  0  0  0  0
   -6.8930   -0.4270  -25.8690 C   0  0  0  0  0  0  0  0  0  0  0  0
   -5.8800   -0.0190  -26.9220 C   0  0  0  0  0  0  0  0  0  0  0  0
   -6.2600    1.1370  -27.5410 F   0  0  0  0  0  0  0  0  0  0  0  0
   -5.7730   -0.9790  -27.8890 F   0  0  0  0  0  0  0  0  0  0  0  0
   -4.8770    0.1420  -26.5040 H   0  0  0  0  0  0  0  0  0  0  0  0
   -7.0550    0.6630  -24.8120 C   0  0  0  0  0  0  0  0  0  0  0  0
   -8.0330    0.2320  -23.7230 C   0  0  0  0  0  0  0  0  0  0  0  0
   -9.0520    0.1930  -24.1320 H   0  0  0  0  0  0  0  0  0  0  0  0
   -8.0500    0.9610  -22.9140 H   0  0  0  0  0  0  0  0  0  0  0  0
   -7.3870    1.5940  -25.2770 H   0  0  0  0  0  0  0  0  0  0  0  0
   -6.0820    0.8780  -24.3510 H   0  0  0  0  0  0  0  0  0  0  0  0
   -7.8480   -0.5600  -26.3980 H   0  0  0  0  0  0  0  0  0  0  0  0
   -6.4300   -2.5390  -25.9650 H   0  0  0  0  0  0  0  0  0  0  0  0
   -5.4900   -1.6480  -24.7750 H   0  0  0  0  0  0  0  0  0  0  0  0
   -8.4350   -2.3810  -24.5810 H   0  0  0  0  0  0  0  0  0  0  0  0
   -7.1380   -3.0180  -23.5870 H   0  0  0  0  0  0  0  0  0  0  0  0
  1  2  2  0  0  0  0
  2  3  1  0  0  0  0
  2 22  1  0  0  0  0
  3  4  1  0  0  0  0
  3 20  1  0  0  0  0
  3 21  1  0  0  0  0
  4  5  2  0  0  0  0
  4 13  1  0  0  0  0
  5  6  1  0  0  0  0
  5 19  1  0  0  0  0
  6  7  2  0  0  0  0
  7  8  1  0  0  0  0
  7 18  1  0  0  0  0
  8  9  2  0  0  0  0
  8 13  1  0  0  0  0
  9 10  1  0  0  0  0
  9 17  1  0  0  0  0
 10 11  2  0  0  0  0
 10 16  1  0  0  0  0
 11 12  1  0  0  0  0
 11 15  1  0  0  0  0
 12 13  2  0  0  0  0
 12 14  1  0  0  0  0
 22 23  1  0  0  0  0
 22 31  1  0  0  0  0
 23 24  1  0  0  0  0
 23 39  1  0  0  0  0
 23 40  1  0  0  0  0
 24 25  1  0  0  0  0
 24 37  1  0  0  0  0
 24 38  1  0  0  0  0
 25 26  1  0  0  0  0
 25 30  1  0  0  0  0
 25 36  1  0  0  0  0
 26 27  1  0  0  0  0
 26 28  1  0  0  0  0
 26 29  1  0  0  0  0
 30 31  1  0  0  0  0
 30 34  1  0  0  0  0
 30 35  1  0  0  0  0
 31 32  1  0  0  0  0
 31 33  1  0  0  0  0
M  END
>  <MODEL>
      10

$$$$
best_conformers_88.pdb
 OpenBabel01292518153D

 40 42  0  0  0  0  0  0  0  0999 V2000
   -8.3850   -0.3730  -21.4380 O   0  0  0  0  0  0  0  0  0  0  0  0
   -7.8290   -1.3540  -21.9020 C   0  0  0  0  0  0  0  0  0  0  0  0
   -6.7770   -2.1010  -21.0440 C   0  0  0  0  0  0  0  0  0  0  0  0
   -6.1380   -1.2110  -20.0020 C   0  0  0  0  0  0  0  0  0  0  0  0
   -6.5130   -1.2740  -18.6830 C   0  0  0  0  0  0  0  0  0  0  0  0
   -6.0180   -0.5080  -17.6720 N   0  0  0  0  0  0  0  0  0  0  0  0
   -5.0950    0.3690  -17.9970 C   0  0  0  0  0  0  0  0  0  0  0  0
   -4.6060    0.5550  -19.3220 C   0  0  0  0  0  0  0  0  0  0  0  0
   -3.6120    1.5220  -19.6280 C   0  0  0  0  0  0  0  0  0  0  0  0
   -3.1690    1.6840  -20.9140 C   0  0  0  0  0  0  0  0  0  0  0  0
   -3.7040    0.8860  -21.9500 C   0  0  0  0  0  0  0  0  0  0  0  0
   -4.6650   -0.0570  -21.6790 C   0  0  0  0  0  0  0  0  0  0  0  0
   -5.1430   -0.2510  -20.3550 C   0  0  0  0  0  0  0  0  0  0  0  0
   -5.0670   -0.6550  -22.4910 H   0  0  0  0  0  0  0  0  0  0  0  0
   -3.3530    1.0250  -22.9670 H   0  0  0  0  0  0  0  0  0  0  0  0
   -2.4120    2.4290  -21.1510 H   0  0  0  0  0  0  0  0  0  0  0  0
   -3.2120    2.1390  -18.8260 H   0  0  0  0  0  0  0  0  0  0  0  0
   -4.6860    0.9920  -17.1990 H   0  0  0  0  0  0  0  0  0  0  0  0
   -7.2710   -1.9890  -18.3710 H   0  0  0  0  0  0  0  0  0  0  0  0
   -7.3090   -2.9080  -20.5210 H   0  0  0  0  0  0  0  0  0  0  0  0
   -6.0010   -2.5900  -21.6450 H   0  0  0  0  0  0  0  0  0  0  0  0
   -8.1550   -1.8490  -23.1440 N   0  0  0  0  0  0  0  0  0  0  0  0
   -7.3110   -2.7740  -23.8990 C   0  0  0  0  0  0  0  0  0  0  0  0
   -7.7140   -2.8610  -25.3720 C   0  0  0  0  0  0  0  0  0  0  0  0
   -9.2000   -3.1660  -25.6010 C   0  0  0  0  0  0  0  0  0  0  0  0
   -9.4850   -4.6460  -25.7880 C   0  0  0  0  0  0  0  0  0  0  0  0
   -8.8400   -5.1340  -26.8850 F   0  0  0  0  0  0  0  0  0  0  0  0
   -9.0210   -5.3590  -24.7200 F   0  0  0  0  0  0  0  0  0  0  0  0
  -10.5520   -4.8760  -25.9000 H   0  0  0  0  0  0  0  0  0  0  0  0
  -10.0770   -2.5870  -24.4820 C   0  0  0  0  0  0  0  0  0  0  0  0
   -9.4090   -1.4190  -23.7700 C   0  0  0  0  0  0  0  0  0  0  0  0
  -10.0650   -1.0230  -22.9950 H   0  0  0  0  0  0  0  0  0  0  0  0
   -9.2320   -0.5950  -24.4720 H   0  0  0  0  0  0  0  0  0  0  0  0
  -11.0360   -2.2670  -24.9010 H   0  0  0  0  0  0  0  0  0  0  0  0
  -10.3160   -3.3570  -23.7420 H   0  0  0  0  0  0  0  0  0  0  0  0
   -9.4900   -2.7170  -26.5550 H   0  0  0  0  0  0  0  0  0  0  0  0
   -7.0990   -3.6100  -25.8780 H   0  0  0  0  0  0  0  0  0  0  0  0
   -7.4670   -1.9130  -25.8620 H   0  0  0  0  0  0  0  0  0  0  0  0
   -7.3350   -3.7730  -23.4530 H   0  0  0  0  0  0  0  0  0  0  0  0
   -6.2700   -2.4310  -23.8660 H   0  0  0  0  0  0  0  0  0  0  0  0
  1  2  2  0  0  0  0
  2  3  1  0  0  0  0
  2 22  1  0  0  0  0
  3  4  1  0  0  0  0
  3 20  1  0  0  0  0
  3 21  1  0  0  0  0
  4  5  2  0  0  0  0
  4 13  1  0  0  0  0
  5  6  1  0  0  0  0
  5 19  1  0  0  0  0
  6  7  2  0  0  0  0
  7  8  1  0  0  0  0
  7 18  1  0  0  0  0
  8  9  2  0  0  0  0
  8 13  1  0  0  0  0
  9 10  1  0  0  0  0
  9 17  1  0  0  0  0
 10 11  2  0  0  0  0
 10 16  1  0  0  0  0
 11 12  1  0  0  0  0
 11 15  1  0  0  0  0
 12 13  2  0  0  0  0
 12 14  1  0  0  0  0
 22 23  1  0  0  0  0
 22 31  1  0  0  0  0
 23 24  1  0  0  0  0
 23 39  1  0  0  0  0
 23 40  1  0  0  0  0
 24 25  1  0  0  0  0
 24 37  1  0  0  0  0
 24 38  1  0  0  0  0
 25 26  1  0  0  0  0
 25 30  1  0  0  0  0
 25 36  1  0  0  0  0
 26 27  1  0  0  0  0
 26 28  1  0  0  0  0
 26 29  1  0  0  0  0
 30 31  1  0  0  0  0
 30 34  1  0  0  0  0
 30 35  1  0  0  0  0
 31 32  1  0  0  0  0
 31 33  1  0  0  0  0
M  END
>  <MODEL>
      11

$$$$
best_conformers_88.pdb
 OpenBabel01292518153D

 40 42  0  0  0  0  0  0  0  0999 V2000
   -8.6610   -0.6390  -21.3180 O   0  0  0  0  0  0  0  0  0  0  0  0
   -7.8030   -1.2940  -21.8840 C   0  0  0  0  0  0  0  0  0  0  0  0
   -6.7840   -2.0930  -21.0440 C   0  0  0  0  0  0  0  0  0  0  0  0
   -6.1320   -1.2140  -19.9950 C   0  0  0  0  0  0  0  0  0  0  0  0
   -6.5120   -1.2740  -18.6800 C   0  0  0  0  0  0  0  0  0  0  0  0
   -6.0170   -0.5060  -17.6700 N   0  0  0  0  0  0  0  0  0  0  0  0
   -5.0950    0.3690  -17.9980 C   0  0  0  0  0  0  0  0  0  0  0  0
   -4.6040    0.5540  -19.3200 C   0  0  0  0  0  0  0  0  0  0  0  0
   -3.6130    1.5230  -19.6290 C   0  0  0  0  0  0  0  0  0  0  0  0
   -3.1710    1.6870  -20.9130 C   0  0  0  0  0  0  0  0  0  0  0  0
   -3.7040    0.8860  -21.9500 C   0  0  0  0  0  0  0  0  0  0  0  0
   -4.6610   -0.0600  -21.6770 C   0  0  0  0  0  0  0  0  0  0  0  0
   -5.1380   -0.2550  -20.3540 C   0  0  0  0  0  0  0  0  0  0  0  0
   -5.0600   -0.6630  -22.4910 H   0  0  0  0  0  0  0  0  0  0  0  0
   -3.3520    1.0250  -22.9680 H   0  0  0  0  0  0  0  0  0  0  0  0
   -2.4150    2.4340  -21.1500 H   0  0  0  0  0  0  0  0  0  0  0  0
   -3.2150    2.1410  -18.8250 H   0  0  0  0  0  0  0  0  0  0  0  0
   -4.6870    0.9920  -17.1980 H   0  0  0  0  0  0  0  0  0  0  0  0
   -7.2710   -1.9890  -18.3670 H   0  0  0  0  0  0  0  0  0  0  0  0
   -6.0180   -2.5810  -21.6600 H   0  0  0  0  0  0  0  0  0  0  0  0
   -7.3400   -2.8850  -20.5280 H   0  0  0  0  0  0  0  0  0  0  0  0
   -7.6780   -1.2970  -23.2560 N   0  0  0  0  0  0  0  0  0  0  0  0
   -7.1300   -2.4160  -24.0180 C   0  0  0  0  0  0  0  0  0  0  0  0
   -7.7150   -2.4780  -25.4290 C   0  0  0  0  0  0  0  0  0  0  0  0
   -7.5250   -1.1790  -26.2230 C   0  0  0  0  0  0  0  0  0  0  0  0
   -6.3470   -1.2330  -27.1800 C   0  0  0  0  0  0  0  0  0  0  0  0
   -6.5180   -2.2100  -28.1160 F   0  0  0  0  0  0  0  0  0  0  0  0
   -5.2010   -1.5450  -26.5040 F   0  0  0  0  0  0  0  0  0  0  0  0
   -6.1690   -0.2900  -27.7130 H   0  0  0  0  0  0  0  0  0  0  0  0
   -7.4070    0.0370  -25.2980 C   0  0  0  0  0  0  0  0  0  0  0  0
   -8.1870   -0.1460  -24.0040 C   0  0  0  0  0  0  0  0  0  0  0  0
   -8.0840    0.7420  -23.3790 H   0  0  0  0  0  0  0  0  0  0  0  0
   -9.2590   -0.2470  -24.2110 H   0  0  0  0  0  0  0  0  0  0  0  0
   -7.7660    0.9270  -25.8230 H   0  0  0  0  0  0  0  0  0  0  0  0
   -6.3580    0.2370  -25.0610 H   0  0  0  0  0  0  0  0  0  0  0  0
   -8.3930   -1.0520  -26.8760 H   0  0  0  0  0  0  0  0  0  0  0  0
   -8.7840   -2.7050  -25.3590 H   0  0  0  0  0  0  0  0  0  0  0  0
   -7.2750   -3.3190  -25.9730 H   0  0  0  0  0  0  0  0  0  0  0  0
   -7.3790   -3.3470  -23.5010 H   0  0  0  0  0  0  0  0  0  0  0  0
   -6.0350   -2.3640  -24.0760 H   0  0  0  0  0  0  0  0  0  0  0  0
  1  2  2  0  0  0  0
  2  3  1  0  0  0  0
  2 22  1  0  0  0  0
  3  4  1  0  0  0  0
  3 20  1  0  0  0  0
  3 21  1  0  0  0  0
  4  5  2  0  0  0  0
  4 13  1  0  0  0  0
  5  6  1  0  0  0  0
  5 19  1  0  0  0  0
  6  7  2  0  0  0  0
  7  8  1  0  0  0  0
  7 18  1  0  0  0  0
  8  9  2  0  0  0  0
  8 13  1  0  0  0  0
  9 10  1  0  0  0  0
  9 17  1  0  0  0  0
 10 11  2  0  0  0  0
 10 16  1  0  0  0  0
 11 12  1  0  0  0  0
 11 15  1  0  0  0  0
 12 13  2  0  0  0  0
 12 14  1  0  0  0  0
 22 23  1  0  0  0  0
 22 31  1  0  0  0  0
 23 24  1  0  0  0  0
 23 39  1  0  0  0  0
 23 40  1  0  0  0  0
 24 25  1  0  0  0  0
 24 37  1  0  0  0  0
 24 38  1  0  0  0  0
 25 26  1  0  0  0  0
 25 30  1  0  0  0  0
 25 36  1  0  0  0  0
 26 27  1  0  0  0  0
 26 28  1  0  0  0  0
 26 29  1  0  0  0  0
 30 31  1  0  0  0  0
 30 34  1  0  0  0  0
 30 35  1  0  0  0  0
 31 32  1  0  0  0  0
 31 33  1  0  0  0  0
M  END
>  <MODEL>
      12

$$$$
best_conformers_88.pdb
 OpenBabel01292518153D

 40 42  0  0  0  0  0  0  0  0999 V2000
   -8.6610   -0.6390  -21.3180 O   0  0  0  0  0  0  0  0  0  0  0  0
   -7.8030   -1.2940  -21.8840 C   0  0  0  0  0  0  0  0  0  0  0  0
   -6.7840   -2.0930  -21.0440 C   0  0  0  0  0  0  0  0  0  0  0  0
   -6.1320   -1.2140  -19.9950 C   0  0  0  0  0  0  0  0  0  0  0  0
   -6.5120   -1.2740  -18.6800 C   0  0  0  0  0  0  0  0  0  0  0  0
   -6.0170   -0.5060  -17.6700 N   0  0  0  0  0  0  0  0  0  0  0  0
   -5.0950    0.3690  -17.9980 C   0  0  0  0  0  0  0  0  0  0  0  0
   -4.6040    0.5540  -19.3200 C   0  0  0  0  0  0  0  0  0  0  0  0
   -3.6130    1.5230  -19.6290 C   0  0  0  0  0  0  0  0  0  0  0  0
   -3.1710    1.6870  -20.9130 C   0  0  0  0  0  0  0  0  0  0  0  0
   -3.7040    0.8860  -21.9500 C   0  0  0  0  0  0  0  0  0  0  0  0
   -4.6610   -0.0600  -21.6770 C   0  0  0  0  0  0  0  0  0  0  0  0
   -5.1380   -0.2550  -20.3540 C   0  0  0  0  0  0  0  0  0  0  0  0
   -5.0600   -0.6630  -22.4910 H   0  0  0  0  0  0  0  0  0  0  0  0
   -3.3520    1.0250  -22.9680 H   0  0  0  0  0  0  0  0  0  0  0  0
   -2.4150    2.4340  -21.1500 H   0  0  0  0  0  0  0  0  0  0  0  0
   -3.2150    2.1410  -18.8250 H   0  0  0  0  0  0  0  0  0  0  0  0
   -4.6870    0.9920  -17.1980 H   0  0  0  0  0  0  0  0  0  0  0  0
   -7.2710   -1.9890  -18.3670 H   0  0  0  0  0  0  0  0  0  0  0  0
   -7.3400   -2.8850  -20.5280 H   0  0  0  0  0  0  0  0  0  0  0  0
   -6.0180   -2.5810  -21.6590 H   0  0  0  0  0  0  0  0  0  0  0  0
   -7.6780   -1.2970  -23.2560 N   0  0  0  0  0  0  0  0  0  0  0  0
   -7.1300   -2.4160  -24.0180 C   0  0  0  0  0  0  0  0  0  0  0  0
   -7.7150   -2.4790  -25.4290 C   0  0  0  0  0  0  0  0  0  0  0  0
   -7.5250   -1.1790  -26.2230 C   0  0  0  0  0  0  0  0  0  0  0  0
   -6.3470   -1.2330  -27.1790 C   0  0  0  0  0  0  0  0  0  0  0  0
   -5.2000   -1.5450  -26.5040 F   0  0  0  0  0  0  0  0  0  0  0  0
   -6.5180   -2.2100  -28.1160 F   0  0  0  0  0  0  0  0  0  0  0  0
   -6.1680   -0.2900  -27.7130 H   0  0  0  0  0  0  0  0  0  0  0  0
   -7.4070    0.0370  -25.2980 C   0  0  0  0  0  0  0  0  0  0  0  0
   -8.1870   -0.1460  -24.0040 C   0  0  0  0  0  0  0  0  0  0  0  0
   -9.2590   -0.2470  -24.2110 H   0  0  0  0  0  0  0  0  0  0  0  0
   -8.0840    0.7420  -23.3790 H   0  0  0  0  0  0  0  0  0  0  0  0
   -6.3580    0.2370  -25.0610 H   0  0  0  0  0  0  0  0  0  0  0  0
   -7.7660    0.9270  -25.8240 H   0  0  0  0  0  0  0  0  0  0  0  0
   -8.3930   -1.0520  -26.8760 H   0  0  0  0  0  0  0  0  0  0  0  0
   -7.2750   -3.3190  -25.9730 H   0  0  0  0  0  0  0  0  0  0  0  0
   -8.7830   -2.7050  -25.3590 H   0  0  0  0  0  0  0  0  0  0  0  0
   -7.3790   -3.3470  -23.5010 H   0  0  0  0  0  0  0  0  0  0  0  0
   -6.0350   -2.3640  -24.0760 H   0  0  0  0  0  0  0  0  0  0  0  0
  1  2  2  0  0  0  0
  2  3  1  0  0  0  0
  2 22  1  0  0  0  0
  3  4  1  0  0  0  0
  3 20  1  0  0  0  0
  3 21  1  0  0  0  0
  4  5  2  0  0  0  0
  4 13  1  0  0  0  0
  5  6  1  0  0  0  0
  5 19  1  0  0  0  0
  6  7  2  0  0  0  0
  7  8  1  0  0  0  0
  7 18  1  0  0  0  0
  8  9  2  0  0  0  0
  8 13  1  0  0  0  0
  9 10  1  0  0  0  0
  9 17  1  0  0  0  0
 10 11  2  0  0  0  0
 10 16  1  0  0  0  0
 11 12  1  0  0  0  0
 11 15  1  0  0  0  0
 12 13  2  0  0  0  0
 12 14  1  0  0  0  0
 22 23  1  0  0  0  0
 22 31  1  0  0  0  0
 23 24  1  0  0  0  0
 23 39  1  0  0  0  0
 23 40  1  0  0  0  0
 24 25  1  0  0  0  0
 24 37  1  0  0  0  0
 24 38  1  0  0  0  0
 25 26  1  0  0  0  0
 25 30  1  0  0  0  0
 25 36  1  0  0  0  0
 26 27  1  0  0  0  0
 26 28  1  0  0  0  0
 26 29  1  0  0  0  0
 30 31  1  0  0  0  0
 30 34  1  0  0  0  0
 30 35  1  0  0  0  0
 31 32  1  0  0  0  0
 31 33  1  0  0  0  0
M  END
>  <MODEL>
      13

$$$$
best_conformers_88.pdb
 OpenBabel01292518153D

 40 42  0  0  0  0  0  0  0  0999 V2000
   -8.6730   -0.6380  -21.2570 O   0  0  0  0  0  0  0  0  0  0  0  0
   -7.8310   -1.2850  -21.8490 C   0  0  0  0  0  0  0  0  0  0  0  0
   -6.7890   -2.0910  -21.0410 C   0  0  0  0  0  0  0  0  0  0  0  0
   -6.1300   -1.2150  -19.9950 C   0  0  0  0  0  0  0  0  0  0  0  0
   -6.5110   -1.2750  -18.6800 C   0  0  0  0  0  0  0  0  0  0  0  0
   -6.0180   -0.5060  -17.6710 N   0  0  0  0  0  0  0  0  0  0  0  0
   -5.0950    0.3690  -17.9980 C   0  0  0  0  0  0  0  0  0  0  0  0
   -4.6050    0.5530  -19.3210 C   0  0  0  0  0  0  0  0  0  0  0  0
   -3.6150    1.5220  -19.6280 C   0  0  0  0  0  0  0  0  0  0  0  0
   -3.1710    1.6860  -20.9130 C   0  0  0  0  0  0  0  0  0  0  0  0
   -3.7030    0.8850  -21.9490 C   0  0  0  0  0  0  0  0  0  0  0  0
   -4.6620   -0.0610  -21.6800 C   0  0  0  0  0  0  0  0  0  0  0  0
   -5.1380   -0.2550  -20.3550 C   0  0  0  0  0  0  0  0  0  0  0  0
   -5.0610   -0.6630  -22.4940 H   0  0  0  0  0  0  0  0  0  0  0  0
   -3.3510    1.0250  -22.9660 H   0  0  0  0  0  0  0  0  0  0  0  0
   -2.4170    2.4340  -21.1480 H   0  0  0  0  0  0  0  0  0  0  0  0
   -3.2200    2.1390  -18.8240 H   0  0  0  0  0  0  0  0  0  0  0  0
   -4.6890    0.9900  -17.1970 H   0  0  0  0  0  0  0  0  0  0  0  0
   -7.2710   -1.9880  -18.3650 H   0  0  0  0  0  0  0  0  0  0  0  0
   -6.0330   -2.5590  -21.6850 H   0  0  0  0  0  0  0  0  0  0  0  0
   -7.3330   -2.8940  -20.5300 H   0  0  0  0  0  0  0  0  0  0  0  0
   -7.7550   -1.2900  -23.2390 N   0  0  0  0  0  0  0  0  0  0  0  0
   -7.2150   -2.3940  -24.0130 C   0  0  0  0  0  0  0  0  0  0  0  0
   -7.9650   -2.5560  -25.3380 C   0  0  0  0  0  0  0  0  0  0  0  0
   -8.0490   -1.2600  -26.1390 C   0  0  0  0  0  0  0  0  0  0  0  0
   -6.7030   -0.8730  -26.7290 C   0  0  0  0  0  0  0  0  0  0  0  0
   -6.8290    0.2620  -27.4780 F   0  0  0  0  0  0  0  0  0  0  0  0
   -6.2580   -1.8590  -27.5620 F   0  0  0  0  0  0  0  0  0  0  0  0
   -5.9160   -0.6920  -25.9870 H   0  0  0  0  0  0  0  0  0  0  0  0
   -8.6270   -0.1570  -25.2550 C   0  0  0  0  0  0  0  0  0  0  0  0
   -7.8800   -0.0130  -23.9350 C   0  0  0  0  0  0  0  0  0  0  0  0
   -8.4130    0.6620  -23.2670 H   0  0  0  0  0  0  0  0  0  0  0  0
   -6.8890    0.4380  -24.1140 H   0  0  0  0  0  0  0  0  0  0  0  0
   -8.6250    0.7960  -25.7940 H   0  0  0  0  0  0  0  0  0  0  0  0
   -9.6710   -0.3940  -25.0400 H   0  0  0  0  0  0  0  0  0  0  0  0
   -8.7030   -1.4080  -27.0110 H   0  0  0  0  0  0  0  0  0  0  0  0
   -7.4930   -3.3390  -25.9360 H   0  0  0  0  0  0  0  0  0  0  0  0
   -8.9820   -2.8970  -25.1260 H   0  0  0  0  0  0  0  0  0  0  0  0
   -6.1360   -2.2820  -24.2100 H   0  0  0  0  0  0  0  0  0  0  0  0
   -7.3340   -3.3060  -23.4290 H   0  0  0  0  0  0  0  0  0  0  0  0
  1  2  2  0  0  0  0
  2  3  1  0  0  0  0
  2 22  1  0  0  0  0
  3  4  1  0  0  0  0
  3 20  1  0  0  0  0
  3 21  1  0  0  0  0
  4  5  2  0  0  0  0
  4 13  1  0  0  0  0
  5  6  1  0  0  0  0
  5 19  1  0  0  0  0
  6  7  2  0  0  0  0
  7  8  1  0  0  0  0
  7 18  1  0  0  0  0
  8  9  2  0  0  0  0
  8 13  1  0  0  0  0
  9 10  1  0  0  0  0
  9 17  1  0  0  0  0
 10 11  2  0  0  0  0
 10 16  1  0  0  0  0
 11 12  1  0  0  0  0
 11 15  1  0  0  0  0
 12 13  2  0  0  0  0
 12 14  1  0  0  0  0
 22 23  1  0  0  0  0
 22 31  1  0  0  0  0
 23 24  1  0  0  0  0
 23 39  1  0  0  0  0
 23 40  1  0  0  0  0
 24 25  1  0  0  0  0
 24 37  1  0  0  0  0
 24 38  1  0  0  0  0
 25 26  1  0  0  0  0
 25 30  1  0  0  0  0
 25 36  1  0  0  0  0
 26 27  1  0  0  0  0
 26 28  1  0  0  0  0
 26 29  1  0  0  0  0
 30 31  1  0  0  0  0
 30 34  1  0  0  0  0
 30 35  1  0  0  0  0
 31 32  1  0  0  0  0
 31 33  1  0  0  0  0
M  END
>  <MODEL>
      14

$$$$
