best_conformers_83.pdb
 OpenBabel01292518153D

 46 50  0  0  1  0  0  0  0  0999 V2000
   -3.9580   -4.3450  -26.0800 N   0  0  0  0  0  0  0  0  0  0  0  0
   -4.6890   -2.8910  -26.3700 S   0  0  0  0  0  0  0  0  0  0  0  0
   -4.0250   -1.9530  -25.4830 O   0  0  0  0  0  0  0  0  0  0  0  0
   -4.6860   -2.7450  -27.8110 O   0  0  0  0  0  0  0  0  0  0  0  0
   -6.3820   -3.0460  -25.8430 C   0  0  0  0  0  0  0  0  0  0  0  0
   -7.3630   -3.3950  -26.7670 C   0  0  0  0  0  0  0  0  0  0  0  0
   -8.6700   -3.5460  -26.3390 C   0  0  0  0  0  0  0  0  0  0  0  0
   -9.0000   -3.3510  -24.9970 C   0  0  0  0  0  0  0  0  0  0  0  0
   -8.0180   -2.9830  -24.0690 C   0  0  0  0  0  0  0  0  0  0  0  0
   -6.7000   -2.8710  -24.5040 C   0  0  0  0  0  0  0  0  0  0  0  0
   -5.9090   -2.6300  -23.8000 H   0  0  0  0  0  0  0  0  0  0  0  0
   -8.3590   -2.7600  -22.6020 C   0  0  1  0  0  0  0  0  0  0  0  0
   -9.8790   -2.5620  -22.4520 C   0  0  0  0  0  0  0  0  0  0  0  0
  -10.6400   -3.5800  -23.2860 C   0  0  0  0  0  0  0  0  0  0  0  0
  -10.3140   -3.4970  -24.6700 O   0  0  0  0  0  0  0  0  0  0  0  0
  -10.4450   -4.5980  -22.9200 H   0  0  0  0  0  0  0  0  0  0  0  0
  -11.7190   -3.4010  -23.2390 H   0  0  0  0  0  0  0  0  0  0  0  0
  -10.1310   -1.5450  -22.7770 H   0  0  0  0  0  0  0  0  0  0  0  0
  -10.1320   -2.6610  -21.3940 H   0  0  0  0  0  0  0  0  0  0  0  0
   -7.8330   -3.8240  -21.7630 N   0  0  0  0  0  0  0  0  0  0  0  0
   -6.8690   -3.4300  -20.8770 C   0  0  0  0  0  0  0  0  0  0  0  0
   -6.1720   -4.1100  -20.1540 O   0  0  0  0  0  0  0  0  0  0  0  0
   -6.8130   -2.0250  -20.9670 N   0  0  0  0  0  0  0  0  0  0  0  0
   -6.1560   -1.2080  -20.0050 C   0  0  0  0  0  0  0  0  0  0  0  0
   -6.5270   -1.3030  -18.6880 C   0  0  0  0  0  0  0  0  0  0  0  0
   -6.0280   -0.5250  -17.6990 N   0  0  0  0  0  0  0  0  0  0  0  0
   -5.1090    0.3520  -18.0250 C   0  0  0  0  0  0  0  0  0  0  0  0
   -4.6090    0.5320  -19.3430 C   0  0  0  0  0  0  0  0  0  0  0  0
   -3.6120    1.4990  -19.6400 C   0  0  0  0  0  0  0  0  0  0  0  0
   -3.1470    1.6450  -20.9160 C   0  0  0  0  0  0  0  0  0  0  0  0
   -3.6570    0.8280  -21.9510 C   0  0  0  0  0  0  0  0  0  0  0  0
   -4.6230   -0.1100  -21.6880 C   0  0  0  0  0  0  0  0  0  0  0  0
   -5.1370   -0.2750  -20.3740 C   0  0  0  0  0  0  0  0  0  0  0  0
   -5.0200   -0.7240  -22.4940 H   0  0  0  0  0  0  0  0  0  0  0  0
   -3.2900    0.9490  -22.9650 H   0  0  0  0  0  0  0  0  0  0  0  0
   -2.3870    2.3900  -21.1450 H   0  0  0  0  0  0  0  0  0  0  0  0
   -3.2330    2.1190  -18.8330 H   0  0  0  0  0  0  0  0  0  0  0  0
   -4.7090    0.9680  -17.2200 H   0  0  0  0  0  0  0  0  0  0  0  0
   -7.2840   -2.0190  -18.3750 H   0  0  0  0  0  0  0  0  0  0  0  0
   -7.6390   -1.5530  -21.9890 C   0  0  0  0  0  0  0  0  0  0  0  0
   -7.7700   -0.3970  -22.3070 O   0  0  0  0  0  0  0  0  0  0  0  0
   -8.0970   -4.7890  -21.8990 H   0  0  0  0  0  0  0  0  0  0  0  0
   -9.4610   -3.8050  -27.0300 H   0  0  0  0  0  0  0  0  0  0  0  0
   -7.0990   -3.5350  -27.8100 H   0  0  0  0  0  0  0  0  0  0  0  0
   -3.9000   -4.5420  -25.0860 H   0  0  0  0  0  0  0  0  0  0  0  0
   -4.3430   -5.0840  -26.6580 H   0  0  0  0  0  0  0  0  0  0  0  0
  1  2  1  0  0  0  0
  1 45  1  0  0  0  0
  1 46  1  0  0  0  0
  2  3  2  0  0  0  0
  2  4  2  0  0  0  0
  2  5  1  0  0  0  0
  5  6  2  0  0  0  0
  5 10  1  0  0  0  0
  6  7  1  0  0  0  0
  6 44  1  0  0  0  0
  7  8  2  0  0  0  0
  7 43  1  0  0  0  0
  8  9  1  0  0  0  0
  8 15  1  0  0  0  0
  9 10  2  0  0  0  0
 10 11  1  0  0  0  0
 12  9  1  6  0  0  0
 12 13  1  0  0  0  0
 12 20  1  0  0  0  0
 12 40  1  0  0  0  0
 13 14  1  0  0  0  0
 13 18  1  0  0  0  0
 13 19  1  0  0  0  0
 14 15  1  0  0  0  0
 14 16  1  0  0  0  0
 14 17  1  0  0  0  0
 20 21  1  0  0  0  0
 20 42  1  0  0  0  0
 21 22  2  0  0  0  0
 21 23  1  0  0  0  0
 23 24  1  0  0  0  0
 23 40  1  0  0  0  0
 24 25  2  0  0  0  0
 24 33  1  0  0  0  0
 25 26  1  0  0  0  0
 25 39  1  0  0  0  0
 26 27  2  0  0  0  0
 27 28  1  0  0  0  0
 27 38  1  0  0  0  0
 28 29  2  0  0  0  0
 28 33  1  0  0  0  0
 29 30  1  0  0  0  0
 29 37  1  0  0  0  0
 30 31  2  0  0  0  0
 30 36  1  0  0  0  0
 31 32  1  0  0  0  0
 31 35  1  0  0  0  0
 32 33  2  0  0  0  0
 32 34  1  0  0  0  0
 40 41  2  0  0  0  0
M  END
>  <MODEL>
       1

$$$$
best_conformers_83.pdb
 OpenBabel01292518153D

 46 50  0  0  1  0  0  0  0  0999 V2000
   -3.0800   -1.8800  -24.8340 N   0  0  0  0  0  0  0  0  0  0  0  0
   -3.6440   -2.8510  -26.0630 S   0  0  0  0  0  0  0  0  0  0  0  0
   -3.4350   -2.2280  -27.3620 O   0  0  0  0  0  0  0  0  0  0  0  0
   -3.1030   -4.1740  -25.7830 O   0  0  0  0  0  0  0  0  0  0  0  0
   -5.3780   -2.7390  -25.7650 C   0  0  0  0  0  0  0  0  0  0  0  0
   -6.1750   -2.4860  -26.8810 C   0  0  0  0  0  0  0  0  0  0  0  0
   -7.5350   -2.3470  -26.7070 C   0  0  0  0  0  0  0  0  0  0  0  0
   -8.0730   -2.4470  -25.4210 C   0  0  0  0  0  0  0  0  0  0  0  0
   -7.2770   -2.7340  -24.3030 C   0  0  0  0  0  0  0  0  0  0  0  0
   -5.9020   -2.8740  -24.4860 C   0  0  0  0  0  0  0  0  0  0  0  0
   -5.2470   -3.1180  -23.6470 H   0  0  0  0  0  0  0  0  0  0  0  0
   -7.8780   -2.8440  -22.9120 C   0  0  1  0  0  0  0  0  0  0  0  0
   -9.4000   -3.0160  -23.0240 C   0  0  0  0  0  0  0  0  0  0  0  0
   -9.9810   -2.0800  -24.0720 C   0  0  0  0  0  0  0  0  0  0  0  0
   -9.4200   -2.3040  -25.3580 O   0  0  0  0  0  0  0  0  0  0  0  0
   -9.8110   -1.0370  -23.7770 H   0  0  0  0  0  0  0  0  0  0  0  0
  -11.0480   -2.2610  -24.2150 H   0  0  0  0  0  0  0  0  0  0  0  0
   -9.5930   -4.0580  -23.3060 H   0  0  0  0  0  0  0  0  0  0  0  0
   -9.8460   -2.8290  -22.0440 H   0  0  0  0  0  0  0  0  0  0  0  0
   -7.2850   -3.8980  -22.1000 N   0  0  0  0  0  0  0  0  0  0  0  0
   -6.6090   -3.4630  -20.9990 C   0  0  0  0  0  0  0  0  0  0  0  0
   -5.9790   -4.1090  -20.1900 O   0  0  0  0  0  0  0  0  0  0  0  0
   -6.7630   -2.0660  -20.9800 N   0  0  0  0  0  0  0  0  0  0  0  0
   -6.1480   -1.2300  -20.0120 C   0  0  0  0  0  0  0  0  0  0  0  0
   -6.5340   -1.3210  -18.6980 C   0  0  0  0  0  0  0  0  0  0  0  0
   -6.0500   -0.5410  -17.7000 N   0  0  0  0  0  0  0  0  0  0  0  0
   -5.1280    0.3350  -18.0310 C   0  0  0  0  0  0  0  0  0  0  0  0
   -4.6190    0.5110  -19.3510 C   0  0  0  0  0  0  0  0  0  0  0  0
   -3.6190    1.4800  -19.6400 C   0  0  0  0  0  0  0  0  0  0  0  0
   -3.1430    1.6250  -20.9140 C   0  0  0  0  0  0  0  0  0  0  0  0
   -3.6380    0.8090  -21.9600 C   0  0  0  0  0  0  0  0  0  0  0  0
   -4.6060   -0.1330  -21.7090 C   0  0  0  0  0  0  0  0  0  0  0  0
   -5.1330   -0.2960  -20.3900 C   0  0  0  0  0  0  0  0  0  0  0  0
   -4.9930   -0.7480  -22.5210 H   0  0  0  0  0  0  0  0  0  0  0  0
   -3.2570    0.9520  -22.9710 H   0  0  0  0  0  0  0  0  0  0  0  0
   -2.3880    2.3770  -21.1330 H   0  0  0  0  0  0  0  0  0  0  0  0
   -3.2600    2.1070  -18.8250 H   0  0  0  0  0  0  0  0  0  0  0  0
   -4.7290    0.9610  -17.2320 H   0  0  0  0  0  0  0  0  0  0  0  0
   -7.2910   -2.0500  -18.4180 H   0  0  0  0  0  0  0  0  0  0  0  0
   -7.5220   -1.6120  -22.0570 C   0  0  0  0  0  0  0  0  0  0  0  0
   -7.8310   -0.4620  -22.2490 O   0  0  0  0  0  0  0  0  0  0  0  0
   -7.3010   -4.8780  -22.3410 H   0  0  0  0  0  0  0  0  0  0  0  0
   -8.2050   -2.1420  -27.5350 H   0  0  0  0  0  0  0  0  0  0  0  0
   -5.7000   -2.4140  -27.8570 H   0  0  0  0  0  0  0  0  0  0  0  0
   -2.0700   -1.9740  -24.7790 H   0  0  0  0  0  0  0  0  0  0  0  0
   -3.4020   -0.9210  -24.8720 H   0  0  0  0  0  0  0  0  0  0  0  0
  1  2  1  0  0  0  0
  1 45  1  0  0  0  0
  1 46  1  0  0  0  0
  2  3  2  0  0  0  0
  2  4  2  0  0  0  0
  2  5  1  0  0  0  0
  5  6  2  0  0  0  0
  5 10  1  0  0  0  0
  6  7  1  0  0  0  0
  6 44  1  0  0  0  0
  7  8  2  0  0  0  0
  7 43  1  0  0  0  0
  8  9  1  0  0  0  0
  8 15  1  0  0  0  0
  9 10  2  0  0  0  0
 10 11  1  0  0  0  0
 12  9  1  6  0  0  0
 12 13  1  0  0  0  0
 12 20  1  0  0  0  0
 12 40  1  0  0  0  0
 13 14  1  0  0  0  0
 13 18  1  0  0  0  0
 13 19  1  0  0  0  0
 14 15  1  0  0  0  0
 14 16  1  0  0  0  0
 14 17  1  0  0  0  0
 20 21  1  0  0  0  0
 20 42  1  0  0  0  0
 21 22  2  0  0  0  0
 21 23  1  0  0  0  0
 23 24  1  0  0  0  0
 23 40  1  0  0  0  0
 24 25  2  0  0  0  0
 24 33  1  0  0  0  0
 25 26  1  0  0  0  0
 25 39  1  0  0  0  0
 26 27  2  0  0  0  0
 27 28  1  0  0  0  0
 27 38  1  0  0  0  0
 28 29  2  0  0  0  0
 28 33  1  0  0  0  0
 29 30  1  0  0  0  0
 29 37  1  0  0  0  0
 30 31  2  0  0  0  0
 30 36  1  0  0  0  0
 31 32  1  0  0  0  0
 31 35  1  0  0  0  0
 32 33  2  0  0  0  0
 32 34  1  0  0  0  0
 40 41  2  0  0  0  0
M  END
>  <MODEL>
       2

$$$$
best_conformers_83.pdb
 OpenBabel01292518153D

 46 50  0  0  1  0  0  0  0  0999 V2000
   -2.8380   -1.6650  -25.1340 N   0  0  0  0  0  0  0  0  0  0  0  0
   -3.5250   -2.9870  -25.9190 S   0  0  0  0  0  0  0  0  0  0  0  0
   -3.1680   -4.2510  -25.2900 O   0  0  0  0  0  0  0  0  0  0  0  0
   -3.1780   -2.7720  -27.3090 O   0  0  0  0  0  0  0  0  0  0  0  0
   -5.2630   -2.7240  -25.7030 C   0  0  0  0  0  0  0  0  0  0  0  0
   -6.0420   -2.4450  -26.8220 C   0  0  0  0  0  0  0  0  0  0  0  0
   -7.4090   -2.2980  -26.6830 C   0  0  0  0  0  0  0  0  0  0  0  0
   -8.0030   -2.4230  -25.4260 C   0  0  0  0  0  0  0  0  0  0  0  0
   -7.2290   -2.7240  -24.3020 C   0  0  0  0  0  0  0  0  0  0  0  0
   -5.8500   -2.8670  -24.4550 C   0  0  0  0  0  0  0  0  0  0  0  0
   -5.2390   -3.1370  -23.5990 H   0  0  0  0  0  0  0  0  0  0  0  0
   -7.8550   -2.8490  -22.9250 C   0  0  1  0  0  0  0  0  0  0  0  0
   -9.3770   -3.0320  -23.0610 C   0  0  0  0  0  0  0  0  0  0  0  0
   -9.9520   -2.0840  -24.1040 C   0  0  0  0  0  0  0  0  0  0  0  0
   -9.3520   -2.2680  -25.3860 O   0  0  0  0  0  0  0  0  0  0  0  0
   -9.8270   -1.0420  -23.7790 H   0  0  0  0  0  0  0  0  0  0  0  0
  -11.0110   -2.2950  -24.2750 H   0  0  0  0  0  0  0  0  0  0  0  0
   -9.5890   -4.0710  -23.3470 H   0  0  0  0  0  0  0  0  0  0  0  0
   -9.8280   -2.8570  -22.0820 H   0  0  0  0  0  0  0  0  0  0  0  0
   -7.2720   -3.8920  -22.1110 N   0  0  0  0  0  0  0  0  0  0  0  0
   -6.6160   -3.4710  -20.9950 C   0  0  0  0  0  0  0  0  0  0  0  0
   -6.0010   -4.1400  -20.1990 O   0  0  0  0  0  0  0  0  0  0  0  0
   -6.7690   -2.0680  -20.9710 N   0  0  0  0  0  0  0  0  0  0  0  0
   -6.1460   -1.2240  -20.0140 C   0  0  0  0  0  0  0  0  0  0  0  0
   -6.5320   -1.3140  -18.7020 C   0  0  0  0  0  0  0  0  0  0  0  0
   -6.0390   -0.5330  -17.7130 N   0  0  0  0  0  0  0  0  0  0  0  0
   -5.1190    0.3430  -18.0380 C   0  0  0  0  0  0  0  0  0  0  0  0
   -4.6110    0.5240  -19.3540 C   0  0  0  0  0  0  0  0  0  0  0  0
   -3.6120    1.4910  -19.6450 C   0  0  0  0  0  0  0  0  0  0  0  0
   -3.1370    1.6330  -20.9170 C   0  0  0  0  0  0  0  0  0  0  0  0
   -3.6370    0.8090  -21.9530 C   0  0  0  0  0  0  0  0  0  0  0  0
   -4.6040   -0.1300  -21.7010 C   0  0  0  0  0  0  0  0  0  0  0  0
   -5.1290   -0.2870  -20.3850 C   0  0  0  0  0  0  0  0  0  0  0  0
   -4.9990   -0.7470  -22.5080 H   0  0  0  0  0  0  0  0  0  0  0  0
   -3.2620    0.9350  -22.9640 H   0  0  0  0  0  0  0  0  0  0  0  0
   -2.3800    2.3810  -21.1380 H   0  0  0  0  0  0  0  0  0  0  0  0
   -3.2440    2.1110  -18.8330 H   0  0  0  0  0  0  0  0  0  0  0  0
   -4.7250    0.9550  -17.2300 H   0  0  0  0  0  0  0  0  0  0  0  0
   -7.2870   -2.0340  -18.3960 H   0  0  0  0  0  0  0  0  0  0  0  0
   -7.5070   -1.6180  -22.0650 C   0  0  0  0  0  0  0  0  0  0  0  0
   -7.8090   -0.4710  -22.2870 O   0  0  0  0  0  0  0  0  0  0  0  0
   -7.2900   -4.8640  -22.3670 H   0  0  0  0  0  0  0  0  0  0  0  0
   -8.0500   -2.0970  -27.5320 H   0  0  0  0  0  0  0  0  0  0  0  0
   -5.5650   -2.3790  -27.7920 H   0  0  0  0  0  0  0  0  0  0  0  0
   -3.0610   -1.6360  -24.1430 H   0  0  0  0  0  0  0  0  0  0  0  0
   -1.8310   -1.7230  -25.2870 H   0  0  0  0  0  0  0  0  0  0  0  0
  1  2  1  0  0  0  0
  1 45  1  0  0  0  0
  1 46  1  0  0  0  0
  2  3  2  0  0  0  0
  2  4  2  0  0  0  0
  2  5  1  0  0  0  0
  5  6  2  0  0  0  0
  5 10  1  0  0  0  0
  6  7  1  0  0  0  0
  6 44  1  0  0  0  0
  7  8  2  0  0  0  0
  7 43  1  0  0  0  0
  8  9  1  0  0  0  0
  8 15  1  0  0  0  0
  9 10  2  0  0  0  0
 10 11  1  0  0  0  0
 12  9  1  6  0  0  0
 12 13  1  0  0  0  0
 12 20  1  0  0  0  0
 12 40  1  0  0  0  0
 13 14  1  0  0  0  0
 13 18  1  0  0  0  0
 13 19  1  0  0  0  0
 14 15  1  0  0  0  0
 14 16  1  0  0  0  0
 14 17  1  0  0  0  0
 20 21  1  0  0  0  0
 20 42  1  0  0  0  0
 21 22  2  0  0  0  0
 21 23  1  0  0  0  0
 23 24  1  0  0  0  0
 23 40  1  0  0  0  0
 24 25  2  0  0  0  0
 24 33  1  0  0  0  0
 25 26  1  0  0  0  0
 25 39  1  0  0  0  0
 26 27  2  0  0  0  0
 27 28  1  0  0  0  0
 27 38  1  0  0  0  0
 28 29  2  0  0  0  0
 28 33  1  0  0  0  0
 29 30  1  0  0  0  0
 29 37  1  0  0  0  0
 30 31  2  0  0  0  0
 30 36  1  0  0  0  0
 31 32  1  0  0  0  0
 31 35  1  0  0  0  0
 32 33  2  0  0  0  0
 32 34  1  0  0  0  0
 40 41  2  0  0  0  0
M  END
>  <MODEL>
       3

$$$$
best_conformers_83.pdb
 OpenBabel01292518153D

 46 50  0  0  1  0  0  0  0  0999 V2000
   -4.4100   -5.4460  -26.1210 N   0  0  0  0  0  0  0  0  0  0  0  0
   -4.4700   -3.8000  -26.2130 S   0  0  0  0  0  0  0  0  0  0  0  0
   -4.2420   -3.4880  -27.6110 O   0  0  0  0  0  0  0  0  0  0  0  0
   -3.5890   -3.3050  -25.1800 O   0  0  0  0  0  0  0  0  0  0  0  0
   -6.1250   -3.3220  -25.7890 C   0  0  0  0  0  0  0  0  0  0  0  0
   -7.0160   -3.0430  -26.8190 C   0  0  0  0  0  0  0  0  0  0  0  0
   -8.3050   -2.6590  -26.5100 C   0  0  0  0  0  0  0  0  0  0  0  0
   -8.7080   -2.5630  -25.1770 C   0  0  0  0  0  0  0  0  0  0  0  0
   -7.8280   -2.8930  -24.1410 C   0  0  0  0  0  0  0  0  0  0  0  0
   -6.5270   -3.2730  -24.4630 C   0  0  0  0  0  0  0  0  0  0  0  0
   -5.8210   -3.5140  -23.6760 H   0  0  0  0  0  0  0  0  0  0  0  0
   -8.2510   -2.7960  -22.6850 C   0  0  1  0  0  0  0  0  0  0  0  0
   -9.7880   -2.7380  -22.5960 C   0  0  0  0  0  0  0  0  0  0  0  0
  -10.3620   -1.7930  -23.6440 C   0  0  0  0  0  0  0  0  0  0  0  0
   -9.9920   -2.1720  -24.9700 O   0  0  0  0  0  0  0  0  0  0  0  0
  -11.4540   -1.8410  -23.6470 H   0  0  0  0  0  0  0  0  0  0  0  0
  -10.0380   -0.7620  -23.4490 H   0  0  0  0  0  0  0  0  0  0  0  0
  -10.0590   -2.4100  -21.5900 H   0  0  0  0  0  0  0  0  0  0  0  0
  -10.1970   -3.7470  -22.7430 H   0  0  0  0  0  0  0  0  0  0  0  0
   -7.7050   -3.8490  -21.8560 N   0  0  0  0  0  0  0  0  0  0  0  0
   -6.8200   -3.4390  -20.9030 C   0  0  0  0  0  0  0  0  0  0  0  0
   -6.1380   -4.1150  -20.1660 O   0  0  0  0  0  0  0  0  0  0  0  0
   -6.8160   -2.0310  -20.9600 N   0  0  0  0  0  0  0  0  0  0  0  0
   -6.1560   -1.2110  -20.0050 C   0  0  0  0  0  0  0  0  0  0  0  0
   -6.5290   -1.3070  -18.6890 C   0  0  0  0  0  0  0  0  0  0  0  0
   -6.0310   -0.5280  -17.7020 N   0  0  0  0  0  0  0  0  0  0  0  0
   -5.1130    0.3480  -18.0300 C   0  0  0  0  0  0  0  0  0  0  0  0
   -4.6100    0.5280  -19.3460 C   0  0  0  0  0  0  0  0  0  0  0  0
   -3.6130    1.4960  -19.6400 C   0  0  0  0  0  0  0  0  0  0  0  0
   -3.1420    1.6440  -20.9140 C   0  0  0  0  0  0  0  0  0  0  0  0
   -3.6490    0.8260  -21.9480 C   0  0  0  0  0  0  0  0  0  0  0  0
   -4.6150   -0.1140  -21.6890 C   0  0  0  0  0  0  0  0  0  0  0  0
   -5.1350   -0.2790  -20.3760 C   0  0  0  0  0  0  0  0  0  0  0  0
   -5.0080   -0.7240  -22.4960 H   0  0  0  0  0  0  0  0  0  0  0  0
   -3.2800    0.9490  -22.9600 H   0  0  0  0  0  0  0  0  0  0  0  0
   -2.3840    2.3900  -21.1420 H   0  0  0  0  0  0  0  0  0  0  0  0
   -3.2390    2.1160  -18.8320 H   0  0  0  0  0  0  0  0  0  0  0  0
   -4.7150    0.9620  -17.2240 H   0  0  0  0  0  0  0  0  0  0  0  0
   -7.2850   -2.0240  -18.3760 H   0  0  0  0  0  0  0  0  0  0  0  0
   -7.6200   -1.5640  -22.0020 C   0  0  0  0  0  0  0  0  0  0  0  0
   -7.7910   -0.4100  -22.2970 O   0  0  0  0  0  0  0  0  0  0  0  0
   -7.9280   -4.8210  -22.0050 H   0  0  0  0  0  0  0  0  0  0  0  0
   -9.0180   -2.4230  -27.2870 H   0  0  0  0  0  0  0  0  0  0  0  0
   -6.6770   -3.1210  -27.8450 H   0  0  0  0  0  0  0  0  0  0  0  0
   -4.9520   -5.8810  -26.8590 H   0  0  0  0  0  0  0  0  0  0  0  0
   -4.5500   -5.7970  -25.1790 H   0  0  0  0  0  0  0  0  0  0  0  0
  1  2  1  0  0  0  0
  1 45  1  0  0  0  0
  1 46  1  0  0  0  0
  2  3  2  0  0  0  0
  2  4  2  0  0  0  0
  2  5  1  0  0  0  0
  5  6  2  0  0  0  0
  5 10  1  0  0  0  0
  6  7  1  0  0  0  0
  6 44  1  0  0  0  0
  7  8  2  0  0  0  0
  7 43  1  0  0  0  0
  8  9  1  0  0  0  0
  8 15  1  0  0  0  0
  9 10  2  0  0  0  0
 10 11  1  0  0  0  0
 12  9  1  6  0  0  0
 12 13  1  0  0  0  0
 12 20  1  0  0  0  0
 12 40  1  0  0  0  0
 13 14  1  0  0  0  0
 13 18  1  0  0  0  0
 13 19  1  0  0  0  0
 14 15  1  0  0  0  0
 14 16  1  0  0  0  0
 14 17  1  0  0  0  0
 20 21  1  0  0  0  0
 20 42  1  0  0  0  0
 21 22  2  0  0  0  0
 21 23  1  0  0  0  0
 23 24  1  0  0  0  0
 23 40  1  0  0  0  0
 24 25  2  0  0  0  0
 24 33  1  0  0  0  0
 25 26  1  0  0  0  0
 25 39  1  0  0  0  0
 26 27  2  0  0  0  0
 27 28  1  0  0  0  0
 27 38  1  0  0  0  0
 28 29  2  0  0  0  0
 28 33  1  0  0  0  0
 29 30  1  0  0  0  0
 29 37  1  0  0  0  0
 30 31  2  0  0  0  0
 30 36  1  0  0  0  0
 31 32  1  0  0  0  0
 31 35  1  0  0  0  0
 32 33  2  0  0  0  0
 32 34  1  0  0  0  0
 40 41  2  0  0  0  0
M  END
>  <MODEL>
       4

$$$$
best_conformers_83.pdb
 OpenBabel01292518153D

 46 50  0  0  1  0  0  0  0  0999 V2000
   -4.4110   -5.4460  -26.1210 N   0  0  0  0  0  0  0  0  0  0  0  0
   -4.4700   -3.8000  -26.2130 S   0  0  0  0  0  0  0  0  0  0  0  0
   -3.5890   -3.3060  -25.1800 O   0  0  0  0  0  0  0  0  0  0  0  0
   -4.2420   -3.4880  -27.6110 O   0  0  0  0  0  0  0  0  0  0  0  0
   -6.1260   -3.3220  -25.7890 C   0  0  0  0  0  0  0  0  0  0  0  0
   -7.0170   -3.0430  -26.8190 C   0  0  0  0  0  0  0  0  0  0  0  0
   -8.3050   -2.6590  -26.5100 C   0  0  0  0  0  0  0  0  0  0  0  0
   -8.7090   -2.5630  -25.1770 C   0  0  0  0  0  0  0  0  0  0  0  0
   -7.8290   -2.8930  -24.1410 C   0  0  0  0  0  0  0  0  0  0  0  0
   -6.5270   -3.2730  -24.4630 C   0  0  0  0  0  0  0  0  0  0  0  0
   -5.8210   -3.5140  -23.6760 H   0  0  0  0  0  0  0  0  0  0  0  0
   -8.2510   -2.7960  -22.6850 C   0  0  1  0  0  0  0  0  0  0  0  0
   -9.7880   -2.7380  -22.5960 C   0  0  0  0  0  0  0  0  0  0  0  0
  -10.3620   -1.7930  -23.6440 C   0  0  0  0  0  0  0  0  0  0  0  0
   -9.9920   -2.1720  -24.9700 O   0  0  0  0  0  0  0  0  0  0  0  0
  -11.4550   -1.8410  -23.6470 H   0  0  0  0  0  0  0  0  0  0  0  0
  -10.0380   -0.7620  -23.4490 H   0  0  0  0  0  0  0  0  0  0  0  0
  -10.1970   -3.7470  -22.7420 H   0  0  0  0  0  0  0  0  0  0  0  0
  -10.0590   -2.4100  -21.5900 H   0  0  0  0  0  0  0  0  0  0  0  0
   -7.7050   -3.8490  -21.8560 N   0  0  0  0  0  0  0  0  0  0  0  0
   -6.8200   -3.4390  -20.9030 C   0  0  0  0  0  0  0  0  0  0  0  0
   -6.1380   -4.1150  -20.1660 O   0  0  0  0  0  0  0  0  0  0  0  0
   -6.8160   -2.0310  -20.9600 N   0  0  0  0  0  0  0  0  0  0  0  0
   -6.1560   -1.2110  -20.0050 C   0  0  0  0  0  0  0  0  0  0  0  0
   -6.5290   -1.3070  -18.6890 C   0  0  0  0  0  0  0  0  0  0  0  0
   -6.0310   -0.5280  -17.7020 N   0  0  0  0  0  0  0  0  0  0  0  0
   -5.1130    0.3480  -18.0300 C   0  0  0  0  0  0  0  0  0  0  0  0
   -4.6100    0.5280  -19.3460 C   0  0  0  0  0  0  0  0  0  0  0  0
   -3.6130    1.4960  -19.6400 C   0  0  0  0  0  0  0  0  0  0  0  0
   -3.1420    1.6440  -20.9140 C   0  0  0  0  0  0  0  0  0  0  0  0
   -3.6490    0.8260  -21.9480 C   0  0  0  0  0  0  0  0  0  0  0  0
   -4.6150   -0.1140  -21.6890 C   0  0  0  0  0  0  0  0  0  0  0  0
   -5.1350   -0.2790  -20.3760 C   0  0  0  0  0  0  0  0  0  0  0  0
   -5.0080   -0.7240  -22.4960 H   0  0  0  0  0  0  0  0  0  0  0  0
   -3.2800    0.9490  -22.9600 H   0  0  0  0  0  0  0  0  0  0  0  0
   -2.3830    2.3900  -21.1420 H   0  0  0  0  0  0  0  0  0  0  0  0
   -3.2390    2.1160  -18.8320 H   0  0  0  0  0  0  0  0  0  0  0  0
   -4.7150    0.9620  -17.2240 H   0  0  0  0  0  0  0  0  0  0  0  0
   -7.2850   -2.0240  -18.3760 H   0  0  0  0  0  0  0  0  0  0  0  0
   -7.6200   -1.5640  -22.0020 C   0  0  0  0  0  0  0  0  0  0  0  0
   -7.7910   -0.4100  -22.2970 O   0  0  0  0  0  0  0  0  0  0  0  0
   -7.9280   -4.8210  -22.0050 H   0  0  0  0  0  0  0  0  0  0  0  0
   -9.0180   -2.4230  -27.2870 H   0  0  0  0  0  0  0  0  0  0  0  0
   -6.6780   -3.1210  -27.8450 H   0  0  0  0  0  0  0  0  0  0  0  0
   -4.9520   -5.8810  -26.8600 H   0  0  0  0  0  0  0  0  0  0  0  0
   -4.5500   -5.7970  -25.1790 H   0  0  0  0  0  0  0  0  0  0  0  0
  1  2  1  0  0  0  0
  1 45  1  0  0  0  0
  1 46  1  0  0  0  0
  2  3  2  0  0  0  0
  2  4  2  0  0  0  0
  2  5  1  0  0  0  0
  5  6  2  0  0  0  0
  5 10  1  0  0  0  0
  6  7  1  0  0  0  0
  6 44  1  0  0  0  0
  7  8  2  0  0  0  0
  7 43  1  0  0  0  0
  8  9  1  0  0  0  0
  8 15  1  0  0  0  0
  9 10  2  0  0  0  0
 10 11  1  0  0  0  0
 12  9  1  6  0  0  0
 12 13  1  0  0  0  0
 12 20  1  0  0  0  0
 12 40  1  0  0  0  0
 13 14  1  0  0  0  0
 13 18  1  0  0  0  0
 13 19  1  0  0  0  0
 14 15  1  0  0  0  0
 14 16  1  0  0  0  0
 14 17  1  0  0  0  0
 20 21  1  0  0  0  0
 20 42  1  0  0  0  0
 21 22  2  0  0  0  0
 21 23  1  0  0  0  0
 23 24  1  0  0  0  0
 23 40  1  0  0  0  0
 24 25  2  0  0  0  0
 24 33  1  0  0  0  0
 25 26  1  0  0  0  0
 25 39  1  0  0  0  0
 26 27  2  0  0  0  0
 27 28  1  0  0  0  0
 27 38  1  0  0  0  0
 28 29  2  0  0  0  0
 28 33  1  0  0  0  0
 29 30  1  0  0  0  0
 29 37  1  0  0  0  0
 30 31  2  0  0  0  0
 30 36  1  0  0  0  0
 31 32  1  0  0  0  0
 31 35  1  0  0  0  0
 32 33  2  0  0  0  0
 32 34  1  0  0  0  0
 40 41  2  0  0  0  0
M  END
>  <MODEL>
       5

$$$$
best_conformers_83.pdb
 OpenBabel01292518153D

 46 50  0  0  1  0  0  0  0  0999 V2000
   -4.5360   -4.6650  -27.5940 N   0  0  0  0  0  0  0  0  0  0  0  0
   -4.4770   -3.8690  -26.1160 S   0  0  0  0  0  0  0  0  0  0  0  0
   -4.0850   -4.8080  -25.0750 O   0  0  0  0  0  0  0  0  0  0  0  0
   -3.6780   -2.6900  -26.3850 O   0  0  0  0  0  0  0  0  0  0  0  0
   -6.1630   -3.4040  -25.7970 C   0  0  0  0  0  0  0  0  0  0  0  0
   -7.0470   -3.0700  -26.8200 C   0  0  0  0  0  0  0  0  0  0  0  0
   -8.3270   -2.6520  -26.4970 C   0  0  0  0  0  0  0  0  0  0  0  0
   -8.7310   -2.5550  -25.1640 C   0  0  0  0  0  0  0  0  0  0  0  0
   -7.8490   -2.8960  -24.1340 C   0  0  0  0  0  0  0  0  0  0  0  0
   -6.5640   -3.3150  -24.4710 C   0  0  0  0  0  0  0  0  0  0  0  0
   -5.8530   -3.5720  -23.6960 H   0  0  0  0  0  0  0  0  0  0  0  0
   -8.2610   -2.7890  -22.6740 C   0  0  1  0  0  0  0  0  0  0  0  0
   -9.7970   -2.7240  -22.5760 C   0  0  0  0  0  0  0  0  0  0  0  0
  -10.3710   -1.7750  -23.6230 C   0  0  0  0  0  0  0  0  0  0  0  0
  -10.0120   -2.1580  -24.9520 O   0  0  0  0  0  0  0  0  0  0  0  0
  -11.4640   -1.8140  -23.6190 H   0  0  0  0  0  0  0  0  0  0  0  0
  -10.0350   -0.7480  -23.4290 H   0  0  0  0  0  0  0  0  0  0  0  0
  -10.0590   -2.3920  -21.5690 H   0  0  0  0  0  0  0  0  0  0  0  0
  -10.2140   -3.7300  -22.7170 H   0  0  0  0  0  0  0  0  0  0  0  0
   -7.7120   -3.8400  -21.8450 N   0  0  0  0  0  0  0  0  0  0  0  0
   -6.8160   -3.4340  -20.9050 C   0  0  0  0  0  0  0  0  0  0  0  0
   -6.1190   -4.1050  -20.1790 O   0  0  0  0  0  0  0  0  0  0  0  0
   -6.8200   -2.0260  -20.9600 N   0  0  0  0  0  0  0  0  0  0  0  0
   -6.1590   -1.2100  -20.0050 C   0  0  0  0  0  0  0  0  0  0  0  0
   -6.5300   -1.3090  -18.6880 C   0  0  0  0  0  0  0  0  0  0  0  0
   -6.0330   -0.5300  -17.7000 N   0  0  0  0  0  0  0  0  0  0  0  0
   -5.1150    0.3450  -18.0320 C   0  0  0  0  0  0  0  0  0  0  0  0
   -4.6100    0.5250  -19.3480 C   0  0  0  0  0  0  0  0  0  0  0  0
   -3.6130    1.4940  -19.6400 C   0  0  0  0  0  0  0  0  0  0  0  0
   -3.1430    1.6430  -20.9140 C   0  0  0  0  0  0  0  0  0  0  0  0
   -3.6490    0.8250  -21.9490 C   0  0  0  0  0  0  0  0  0  0  0  0
   -4.6140   -0.1150  -21.6920 C   0  0  0  0  0  0  0  0  0  0  0  0
   -5.1340   -0.2810  -20.3790 C   0  0  0  0  0  0  0  0  0  0  0  0
   -5.0080   -0.7230  -22.5010 H   0  0  0  0  0  0  0  0  0  0  0  0
   -3.2800    0.9510  -22.9610 H   0  0  0  0  0  0  0  0  0  0  0  0
   -2.3860    2.3910  -21.1390 H   0  0  0  0  0  0  0  0  0  0  0  0
   -3.2450    2.1130  -18.8290 H   0  0  0  0  0  0  0  0  0  0  0  0
   -4.7190    0.9590  -17.2270 H   0  0  0  0  0  0  0  0  0  0  0  0
   -7.2860   -2.0280  -18.3770 H   0  0  0  0  0  0  0  0  0  0  0  0
   -7.6240   -1.5580  -21.9980 C   0  0  0  0  0  0  0  0  0  0  0  0
   -7.7930   -0.3990  -22.2940 O   0  0  0  0  0  0  0  0  0  0  0  0
   -7.9450   -4.8100  -21.9770 H   0  0  0  0  0  0  0  0  0  0  0  0
   -9.0500   -2.3990  -27.2610 H   0  0  0  0  0  0  0  0  0  0  0  0
   -6.7480   -3.1300  -27.8610 H   0  0  0  0  0  0  0  0  0  0  0  0
   -5.0570   -5.5320  -27.5020 H   0  0  0  0  0  0  0  0  0  0  0  0
   -3.5640   -4.8690  -27.8370 H   0  0  0  0  0  0  0  0  0  0  0  0
  1  2  1  0  0  0  0
  1 45  1  0  0  0  0
  1 46  1  0  0  0  0
  2  3  2  0  0  0  0
  2  4  2  0  0  0  0
  2  5  1  0  0  0  0
  5  6  2  0  0  0  0
  5 10  1  0  0  0  0
  6  7  1  0  0  0  0
  6 44  1  0  0  0  0
  7  8  2  0  0  0  0
  7 43  1  0  0  0  0
  8  9  1  0  0  0  0
  8 15  1  0  0  0  0
  9 10  2  0  0  0  0
 10 11  1  0  0  0  0
 12  9  1  6  0  0  0
 12 13  1  0  0  0  0
 12 20  1  0  0  0  0
 12 40  1  0  0  0  0
 13 14  1  0  0  0  0
 13 18  1  0  0  0  0
 13 19  1  0  0  0  0
 14 15  1  0  0  0  0
 14 16  1  0  0  0  0
 14 17  1  0  0  0  0
 20 21  1  0  0  0  0
 20 42  1  0  0  0  0
 21 22  2  0  0  0  0
 21 23  1  0  0  0  0
 23 24  1  0  0  0  0
 23 40  1  0  0  0  0
 24 25  2  0  0  0  0
 24 33  1  0  0  0  0
 25 26  1  0  0  0  0
 25 39  1  0  0  0  0
 26 27  2  0  0  0  0
 27 28  1  0  0  0  0
 27 38  1  0  0  0  0
 28 29  2  0  0  0  0
 28 33  1  0  0  0  0
 29 30  1  0  0  0  0
 29 37  1  0  0  0  0
 30 31  2  0  0  0  0
 30 36  1  0  0  0  0
 31 32  1  0  0  0  0
 31 35  1  0  0  0  0
 32 33  2  0  0  0  0
 32 34  1  0  0  0  0
 40 41  2  0  0  0  0
M  END
>  <MODEL>
       6

$$$$
best_conformers_83.pdb
 OpenBabel01292518153D

 46 50  0  0  1  0  0  0  0  0999 V2000
   -4.5350   -4.6650  -27.5930 N   0  0  0  0  0  0  0  0  0  0  0  0
   -4.4760   -3.8690  -26.1160 S   0  0  0  0  0  0  0  0  0  0  0  0
   -3.6770   -2.6900  -26.3850 O   0  0  0  0  0  0  0  0  0  0  0  0
   -4.0840   -4.8070  -25.0740 O   0  0  0  0  0  0  0  0  0  0  0  0
   -6.1620   -3.4050  -25.7970 C   0  0  0  0  0  0  0  0  0  0  0  0
   -7.0470   -3.0700  -26.8200 C   0  0  0  0  0  0  0  0  0  0  0  0
   -8.3260   -2.6520  -26.4970 C   0  0  0  0  0  0  0  0  0  0  0  0
   -8.7300   -2.5560  -25.1640 C   0  0  0  0  0  0  0  0  0  0  0  0
   -7.8480   -2.8960  -24.1340 C   0  0  0  0  0  0  0  0  0  0  0  0
   -6.5630   -3.3150  -24.4710 C   0  0  0  0  0  0  0  0  0  0  0  0
   -5.8520   -3.5720  -23.6950 H   0  0  0  0  0  0  0  0  0  0  0  0
   -8.2610   -2.7890  -22.6740 C   0  0  1  0  0  0  0  0  0  0  0  0
   -9.7970   -2.7240  -22.5760 C   0  0  0  0  0  0  0  0  0  0  0  0
  -10.3700   -1.7760  -23.6230 C   0  0  0  0  0  0  0  0  0  0  0  0
  -10.0120   -2.1580  -24.9530 O   0  0  0  0  0  0  0  0  0  0  0  0
  -10.0350   -0.7480  -23.4300 H   0  0  0  0  0  0  0  0  0  0  0  0
  -11.4640   -1.8140  -23.6200 H   0  0  0  0  0  0  0  0  0  0  0  0
  -10.2130   -3.7300  -22.7180 H   0  0  0  0  0  0  0  0  0  0  0  0
  -10.0590   -2.3920  -21.5690 H   0  0  0  0  0  0  0  0  0  0  0  0
   -7.7120   -3.8400  -21.8450 N   0  0  0  0  0  0  0  0  0  0  0  0
   -6.8150   -3.4340  -20.9040 C   0  0  0  0  0  0  0  0  0  0  0  0
   -6.1190   -4.1050  -20.1790 O   0  0  0  0  0  0  0  0  0  0  0  0
   -6.8190   -2.0260  -20.9600 N   0  0  0  0  0  0  0  0  0  0  0  0
   -6.1590   -1.2100  -20.0050 C   0  0  0  0  0  0  0  0  0  0  0  0
   -6.5300   -1.3090  -18.6880 C   0  0  0  0  0  0  0  0  0  0  0  0
   -6.0330   -0.5300  -17.7000 N   0  0  0  0  0  0  0  0  0  0  0  0
   -5.1150    0.3450  -18.0320 C   0  0  0  0  0  0  0  0  0  0  0  0
   -4.6100    0.5250  -19.3480 C   0  0  0  0  0  0  0  0  0  0  0  0
   -3.6130    1.4940  -19.6400 C   0  0  0  0  0  0  0  0  0  0  0  0
   -3.1430    1.6430  -20.9140 C   0  0  0  0  0  0  0  0  0  0  0  0
   -3.6480    0.8250  -21.9490 C   0  0  0  0  0  0  0  0  0  0  0  0
   -4.6140   -0.1150  -21.6920 C   0  0  0  0  0  0  0  0  0  0  0  0
   -5.1340   -0.2810  -20.3790 C   0  0  0  0  0  0  0  0  0  0  0  0
   -5.0080   -0.7230  -22.5010 H   0  0  0  0  0  0  0  0  0  0  0  0
   -3.2800    0.9510  -22.9610 H   0  0  0  0  0  0  0  0  0  0  0  0
   -2.3860    2.3910  -21.1390 H   0  0  0  0  0  0  0  0  0  0  0  0
   -3.2450    2.1130  -18.8290 H   0  0  0  0  0  0  0  0  0  0  0  0
   -4.7190    0.9590  -17.2270 H   0  0  0  0  0  0  0  0  0  0  0  0
   -7.2860   -2.0280  -18.3770 H   0  0  0  0  0  0  0  0  0  0  0  0
   -7.6240   -1.5580  -21.9980 C   0  0  0  0  0  0  0  0  0  0  0  0
   -7.7930   -0.3990  -22.2940 O   0  0  0  0  0  0  0  0  0  0  0  0
   -7.9450   -4.8110  -21.9770 H   0  0  0  0  0  0  0  0  0  0  0  0
   -9.0490   -2.3990  -27.2610 H   0  0  0  0  0  0  0  0  0  0  0  0
   -6.7470   -3.1300  -27.8610 H   0  0  0  0  0  0  0  0  0  0  0  0
   -3.5630   -4.8700  -27.8360 H   0  0  0  0  0  0  0  0  0  0  0  0
   -5.0560   -5.5330  -27.5000 H   0  0  0  0  0  0  0  0  0  0  0  0
  1  2  1  0  0  0  0
  1 45  1  0  0  0  0
  1 46  1  0  0  0  0
  2  3  2  0  0  0  0
  2  4  2  0  0  0  0
  2  5  1  0  0  0  0
  5  6  2  0  0  0  0
  5 10  1  0  0  0  0
  6  7  1  0  0  0  0
  6 44  1  0  0  0  0
  7  8  2  0  0  0  0
  7 43  1  0  0  0  0
  8  9  1  0  0  0  0
  8 15  1  0  0  0  0
  9 10  2  0  0  0  0
 10 11  1  0  0  0  0
 12  9  1  6  0  0  0
 12 13  1  0  0  0  0
 12 20  1  0  0  0  0
 12 40  1  0  0  0  0
 13 14  1  0  0  0  0
 13 18  1  0  0  0  0
 13 19  1  0  0  0  0
 14 15  1  0  0  0  0
 14 16  1  0  0  0  0
 14 17  1  0  0  0  0
 20 21  1  0  0  0  0
 20 42  1  0  0  0  0
 21 22  2  0  0  0  0
 21 23  1  0  0  0  0
 23 24  1  0  0  0  0
 23 40  1  0  0  0  0
 24 25  2  0  0  0  0
 24 33  1  0  0  0  0
 25 26  1  0  0  0  0
 25 39  1  0  0  0  0
 26 27  2  0  0  0  0
 27 28  1  0  0  0  0
 27 38  1  0  0  0  0
 28 29  2  0  0  0  0
 28 33  1  0  0  0  0
 29 30  1  0  0  0  0
 29 37  1  0  0  0  0
 30 31  2  0  0  0  0
 30 36  1  0  0  0  0
 31 32  1  0  0  0  0
 31 35  1  0  0  0  0
 32 33  2  0  0  0  0
 32 34  1  0  0  0  0
 40 41  2  0  0  0  0
M  END
>  <MODEL>
       7

$$$$
best_conformers_83.pdb
 OpenBabel01292518153D

 46 50  0  0  1  0  0  0  0  0999 V2000
   -3.9120   -4.3160  -26.0180 N   0  0  0  0  0  0  0  0  0  0  0  0
   -4.6730   -2.8570  -26.3490 S   0  0  0  0  0  0  0  0  0  0  0  0
   -4.6510   -2.7610  -27.7940 O   0  0  0  0  0  0  0  0  0  0  0  0
   -4.0840   -1.8190  -25.5130 O   0  0  0  0  0  0  0  0  0  0  0  0
   -6.3550   -3.0870  -25.8300 C   0  0  0  0  0  0  0  0  0  0  0  0
   -7.3400   -3.4120  -26.7600 C   0  0  0  0  0  0  0  0  0  0  0  0
   -8.6520   -3.5480  -26.3380 C   0  0  0  0  0  0  0  0  0  0  0  0
   -8.9860   -3.3510  -24.9980 C   0  0  0  0  0  0  0  0  0  0  0  0
   -8.0070   -2.9870  -24.0660 C   0  0  0  0  0  0  0  0  0  0  0  0
   -6.6860   -2.8870  -24.4970 C   0  0  0  0  0  0  0  0  0  0  0  0
   -5.9060   -2.6230  -23.7910 H   0  0  0  0  0  0  0  0  0  0  0  0
   -8.3510   -2.7570  -22.6000 C   0  0  1  0  0  0  0  0  0  0  0  0
   -9.8710   -2.5630  -22.4580 C   0  0  0  0  0  0  0  0  0  0  0  0
  -10.6300   -3.5800  -23.2970 C   0  0  0  0  0  0  0  0  0  0  0  0
  -10.3020   -3.4900  -24.6800 O   0  0  0  0  0  0  0  0  0  0  0  0
  -10.4290   -4.5990  -22.9370 H   0  0  0  0  0  0  0  0  0  0  0  0
  -11.7100   -3.4040  -23.2570 H   0  0  0  0  0  0  0  0  0  0  0  0
  -10.1190   -1.5440  -22.7810 H   0  0  0  0  0  0  0  0  0  0  0  0
  -10.1250   -2.6660  -21.4020 H   0  0  0  0  0  0  0  0  0  0  0  0
   -7.8220   -3.8170  -21.7580 N   0  0  0  0  0  0  0  0  0  0  0  0
   -6.8510   -3.4250  -20.8820 C   0  0  0  0  0  0  0  0  0  0  0  0
   -6.1390   -4.1010  -20.1770 O   0  0  0  0  0  0  0  0  0  0  0  0
   -6.8130   -2.0190  -20.9660 N   0  0  0  0  0  0  0  0  0  0  0  0
   -6.1580   -1.2050  -20.0040 C   0  0  0  0  0  0  0  0  0  0  0  0
   -6.5290   -1.3050  -18.6870 C   0  0  0  0  0  0  0  0  0  0  0  0
   -6.0310   -0.5270  -17.6970 N   0  0  0  0  0  0  0  0  0  0  0  0
   -5.1120    0.3480  -18.0280 C   0  0  0  0  0  0  0  0  0  0  0  0
   -4.6100    0.5280  -19.3460 C   0  0  0  0  0  0  0  0  0  0  0  0
   -3.6130    1.4950  -19.6410 C   0  0  0  0  0  0  0  0  0  0  0  0
   -3.1470    1.6430  -20.9170 C   0  0  0  0  0  0  0  0  0  0  0  0
   -3.6550    0.8260  -21.9520 C   0  0  0  0  0  0  0  0  0  0  0  0
   -4.6200   -0.1130  -21.6930 C   0  0  0  0  0  0  0  0  0  0  0  0
   -5.1360   -0.2760  -20.3770 C   0  0  0  0  0  0  0  0  0  0  0  0
   -5.0190   -0.7240  -22.5010 H   0  0  0  0  0  0  0  0  0  0  0  0
   -3.2880    0.9490  -22.9660 H   0  0  0  0  0  0  0  0  0  0  0  0
   -2.3890    2.3900  -21.1410 H   0  0  0  0  0  0  0  0  0  0  0  0
   -3.2400    2.1140  -18.8320 H   0  0  0  0  0  0  0  0  0  0  0  0
   -4.7150    0.9620  -17.2240 H   0  0  0  0  0  0  0  0  0  0  0  0
   -7.2850   -2.0240  -18.3770 H   0  0  0  0  0  0  0  0  0  0  0  0
   -7.6370   -1.5460  -21.9880 C   0  0  0  0  0  0  0  0  0  0  0  0
   -7.7710   -0.3890  -22.3030 O   0  0  0  0  0  0  0  0  0  0  0  0
   -8.0750   -4.7830  -21.8930 H   0  0  0  0  0  0  0  0  0  0  0  0
   -9.4520   -3.7980  -27.0260 H   0  0  0  0  0  0  0  0  0  0  0  0
   -7.0810   -3.5360  -27.8060 H   0  0  0  0  0  0  0  0  0  0  0  0
   -2.9630   -4.2340  -26.3850 H   0  0  0  0  0  0  0  0  0  0  0  0
   -3.8990   -4.4740  -25.0130 H   0  0  0  0  0  0  0  0  0  0  0  0
  1  2  1  0  0  0  0
  1 45  1  0  0  0  0
  1 46  1  0  0  0  0
  2  3  2  0  0  0  0
  2  4  2  0  0  0  0
  2  5  1  0  0  0  0
  5  6  2  0  0  0  0
  5 10  1  0  0  0  0
  6  7  1  0  0  0  0
  6 44  1  0  0  0  0
  7  8  2  0  0  0  0
  7 43  1  0  0  0  0
  8  9  1  0  0  0  0
  8 15  1  0  0  0  0
  9 10  2  0  0  0  0
 10 11  1  0  0  0  0
 12  9  1  6  0  0  0
 12 13  1  0  0  0  0
 12 20  1  0  0  0  0
 12 40  1  0  0  0  0
 13 14  1  0  0  0  0
 13 18  1  0  0  0  0
 13 19  1  0  0  0  0
 14 15  1  0  0  0  0
 14 16  1  0  0  0  0
 14 17  1  0  0  0  0
 20 21  1  0  0  0  0
 20 42  1  0  0  0  0
 21 22  2  0  0  0  0
 21 23  1  0  0  0  0
 23 24  1  0  0  0  0
 23 40  1  0  0  0  0
 24 25  2  0  0  0  0
 24 33  1  0  0  0  0
 25 26  1  0  0  0  0
 25 39  1  0  0  0  0
 26 27  2  0  0  0  0
 27 28  1  0  0  0  0
 27 38  1  0  0  0  0
 28 29  2  0  0  0  0
 28 33  1  0  0  0  0
 29 30  1  0  0  0  0
 29 37  1  0  0  0  0
 30 31  2  0  0  0  0
 30 36  1  0  0  0  0
 31 32  1  0  0  0  0
 31 35  1  0  0  0  0
 32 33  2  0  0  0  0
 32 34  1  0  0  0  0
 40 41  2  0  0  0  0
M  END
>  <MODEL>
       8

$$$$
best_conformers_83.pdb
 OpenBabel01292518153D

 46 50  0  0  1  0  0  0  0  0999 V2000
   -4.1410   -1.3430  -26.0100 N   0  0  0  0  0  0  0  0  0  0  0  0
   -4.5680   -2.9090  -26.3110 S   0  0  0  0  0  0  0  0  0  0  0  0
   -3.7440   -3.6990  -25.4180 O   0  0  0  0  0  0  0  0  0  0  0  0
   -4.5070   -3.0630  -27.7510 O   0  0  0  0  0  0  0  0  0  0  0  0
   -6.2750   -3.0720  -25.8220 C   0  0  0  0  0  0  0  0  0  0  0  0
   -7.2430   -3.3630  -26.7780 C   0  0  0  0  0  0  0  0  0  0  0  0
   -8.5610   -3.5040  -26.3820 C   0  0  0  0  0  0  0  0  0  0  0  0
   -8.9180   -3.3350  -25.0430 C   0  0  0  0  0  0  0  0  0  0  0  0
   -7.9560   -2.9770  -24.0910 C   0  0  0  0  0  0  0  0  0  0  0  0
   -6.6270   -2.8780  -24.4940 C   0  0  0  0  0  0  0  0  0  0  0  0
   -5.8520   -2.6670  -23.7620 H   0  0  0  0  0  0  0  0  0  0  0  0
   -8.3260   -2.7650  -22.6280 C   0  0  1  0  0  0  0  0  0  0  0  0
   -9.8500   -2.5790  -22.5080 C   0  0  0  0  0  0  0  0  0  0  0  0
  -10.5900   -3.5940  -23.3660 C   0  0  0  0  0  0  0  0  0  0  0  0
  -10.2370   -3.4930  -24.7420 O   0  0  0  0  0  0  0  0  0  0  0  0
  -11.6700   -3.4180  -23.3400 H   0  0  0  0  0  0  0  0  0  0  0  0
  -10.3990   -4.6150  -23.0070 H   0  0  0  0  0  0  0  0  0  0  0  0
  -10.1250   -2.6880  -21.4560 H   0  0  0  0  0  0  0  0  0  0  0  0
  -10.1000   -1.5610  -22.8300 H   0  0  0  0  0  0  0  0  0  0  0  0
   -7.8100   -3.8280  -21.7820 N   0  0  0  0  0  0  0  0  0  0  0  0
   -6.8600   -3.4320  -20.8810 C   0  0  0  0  0  0  0  0  0  0  0  0
   -6.1690   -4.1110  -20.1510 O   0  0  0  0  0  0  0  0  0  0  0  0
   -6.8100   -2.0260  -20.9670 N   0  0  0  0  0  0  0  0  0  0  0  0
   -6.1560   -1.2080  -20.0050 C   0  0  0  0  0  0  0  0  0  0  0  0
   -6.5280   -1.3030  -18.6890 C   0  0  0  0  0  0  0  0  0  0  0  0
   -6.0280   -0.5250  -17.7000 N   0  0  0  0  0  0  0  0  0  0  0  0
   -5.1090    0.3520  -18.0260 C   0  0  0  0  0  0  0  0  0  0  0  0
   -4.6090    0.5320  -19.3430 C   0  0  0  0  0  0  0  0  0  0  0  0
   -3.6110    1.4980  -19.6410 C   0  0  0  0  0  0  0  0  0  0  0  0
   -3.1450    1.6440  -20.9180 C   0  0  0  0  0  0  0  0  0  0  0  0
   -3.6560    0.8260  -21.9510 C   0  0  0  0  0  0  0  0  0  0  0  0
   -4.6220   -0.1120  -21.6890 C   0  0  0  0  0  0  0  0  0  0  0  0
   -5.1370   -0.2760  -20.3740 C   0  0  0  0  0  0  0  0  0  0  0  0
   -5.0230   -0.7280  -22.4920 H   0  0  0  0  0  0  0  0  0  0  0  0
   -3.2880    0.9500  -22.9640 H   0  0  0  0  0  0  0  0  0  0  0  0
   -2.3850    2.3900  -21.1460 H   0  0  0  0  0  0  0  0  0  0  0  0
   -3.2330    2.1190  -18.8340 H   0  0  0  0  0  0  0  0  0  0  0  0
   -4.7100    0.9670  -17.2200 H   0  0  0  0  0  0  0  0  0  0  0  0
   -7.2840   -2.0200  -18.3750 H   0  0  0  0  0  0  0  0  0  0  0  0
   -7.6230   -1.5560  -22.0010 C   0  0  0  0  0  0  0  0  0  0  0  0
   -7.7550   -0.4020  -22.3190 O   0  0  0  0  0  0  0  0  0  0  0  0
   -8.0690   -4.7950  -21.9210 H   0  0  0  0  0  0  0  0  0  0  0  0
   -9.3370   -3.7570  -27.0930 H   0  0  0  0  0  0  0  0  0  0  0  0
   -6.9500   -3.4850  -27.8150 H   0  0  0  0  0  0  0  0  0  0  0  0
   -4.0750   -1.1470  -25.0180 H   0  0  0  0  0  0  0  0  0  0  0  0
   -4.6760   -0.6850  -26.5650 H   0  0  0  0  0  0  0  0  0  0  0  0
  1  2  1  0  0  0  0
  1 45  1  0  0  0  0
  1 46  1  0  0  0  0
  2  3  2  0  0  0  0
  2  4  2  0  0  0  0
  2  5  1  0  0  0  0
  5  6  2  0  0  0  0
  5 10  1  0  0  0  0
  6  7  1  0  0  0  0
  6 44  1  0  0  0  0
  7  8  2  0  0  0  0
  7 43  1  0  0  0  0
  8  9  1  0  0  0  0
  8 15  1  0  0  0  0
  9 10  2  0  0  0  0
 10 11  1  0  0  0  0
 12  9  1  6  0  0  0
 12 13  1  0  0  0  0
 12 20  1  0  0  0  0
 12 40  1  0  0  0  0
 13 14  1  0  0  0  0
 13 18  1  0  0  0  0
 13 19  1  0  0  0  0
 14 15  1  0  0  0  0
 14 16  1  0  0  0  0
 14 17  1  0  0  0  0
 20 21  1  0  0  0  0
 20 42  1  0  0  0  0
 21 22  2  0  0  0  0
 21 23  1  0  0  0  0
 23 24  1  0  0  0  0
 23 40  1  0  0  0  0
 24 25  2  0  0  0  0
 24 33  1  0  0  0  0
 25 26  1  0  0  0  0
 25 39  1  0  0  0  0
 26 27  2  0  0  0  0
 27 28  1  0  0  0  0
 27 38  1  0  0  0  0
 28 29  2  0  0  0  0
 28 33  1  0  0  0  0
 29 30  1  0  0  0  0
 29 37  1  0  0  0  0
 30 31  2  0  0  0  0
 30 36  1  0  0  0  0
 31 32  1  0  0  0  0
 31 35  1  0  0  0  0
 32 33  2  0  0  0  0
 32 34  1  0  0  0  0
 40 41  2  0  0  0  0
M  END
>  <MODEL>
       9

$$$$
best_conformers_83.pdb
 OpenBabel01292518153D

 46 50  0  0  1  0  0  0  0  0999 V2000
   -4.1340   -1.3480  -26.0020 N   0  0  0  0  0  0  0  0  0  0  0  0
   -4.5650   -2.9110  -26.3090 S   0  0  0  0  0  0  0  0  0  0  0  0
   -4.5030   -3.0610  -27.7490 O   0  0  0  0  0  0  0  0  0  0  0  0
   -3.7430   -3.7070  -25.4190 O   0  0  0  0  0  0  0  0  0  0  0  0
   -6.2720   -3.0720  -25.8210 C   0  0  0  0  0  0  0  0  0  0  0  0
   -7.2400   -3.3620  -26.7780 C   0  0  0  0  0  0  0  0  0  0  0  0
   -8.5580   -3.5030  -26.3830 C   0  0  0  0  0  0  0  0  0  0  0  0
   -8.9170   -3.3340  -25.0440 C   0  0  0  0  0  0  0  0  0  0  0  0
   -7.9550   -2.9760  -24.0910 C   0  0  0  0  0  0  0  0  0  0  0  0
   -6.6260   -2.8780  -24.4940 C   0  0  0  0  0  0  0  0  0  0  0  0
   -5.8510   -2.6680  -23.7600 H   0  0  0  0  0  0  0  0  0  0  0  0
   -8.3260   -2.7640  -22.6290 C   0  0  1  0  0  0  0  0  0  0  0  0
   -9.8500   -2.5770  -22.5100 C   0  0  0  0  0  0  0  0  0  0  0  0
  -10.5900   -3.5910  -23.3690 C   0  0  0  0  0  0  0  0  0  0  0  0
  -10.2360   -3.4900  -24.7450 O   0  0  0  0  0  0  0  0  0  0  0  0
  -11.6700   -3.4150  -23.3440 H   0  0  0  0  0  0  0  0  0  0  0  0
  -10.4000   -4.6130  -23.0100 H   0  0  0  0  0  0  0  0  0  0  0  0
  -10.0990   -1.5580  -22.8320 H   0  0  0  0  0  0  0  0  0  0  0  0
  -10.1250   -2.6860  -21.4590 H   0  0  0  0  0  0  0  0  0  0  0  0
   -7.8110   -3.8270  -21.7820 N   0  0  0  0  0  0  0  0  0  0  0  0
   -6.8610   -3.4320  -20.8810 C   0  0  0  0  0  0  0  0  0  0  0  0
   -6.1700   -4.1100  -20.1520 O   0  0  0  0  0  0  0  0  0  0  0  0
   -6.8100   -2.0250  -20.9670 N   0  0  0  0  0  0  0  0  0  0  0  0
   -6.1560   -1.2080  -20.0050 C   0  0  0  0  0  0  0  0  0  0  0  0
   -6.5280   -1.3030  -18.6890 C   0  0  0  0  0  0  0  0  0  0  0  0
   -6.0280   -0.5250  -17.7000 N   0  0  0  0  0  0  0  0  0  0  0  0
   -5.1090    0.3520  -18.0260 C   0  0  0  0  0  0  0  0  0  0  0  0
   -4.6090    0.5320  -19.3430 C   0  0  0  0  0  0  0  0  0  0  0  0
   -3.6110    1.4980  -19.6410 C   0  0  0  0  0  0  0  0  0  0  0  0
   -3.1450    1.6450  -20.9180 C   0  0  0  0  0  0  0  0  0  0  0  0
   -3.6570    0.8260  -21.9510 C   0  0  0  0  0  0  0  0  0  0  0  0
   -4.6220   -0.1120  -21.6890 C   0  0  0  0  0  0  0  0  0  0  0  0
   -5.1370   -0.2760  -20.3740 C   0  0  0  0  0  0  0  0  0  0  0  0
   -5.0230   -0.7280  -22.4920 H   0  0  0  0  0  0  0  0  0  0  0  0
   -3.2880    0.9500  -22.9640 H   0  0  0  0  0  0  0  0  0  0  0  0
   -2.3860    2.3900  -21.1460 H   0  0  0  0  0  0  0  0  0  0  0  0
   -3.2330    2.1190  -18.8350 H   0  0  0  0  0  0  0  0  0  0  0  0
   -4.7100    0.9670  -17.2200 H   0  0  0  0  0  0  0  0  0  0  0  0
   -7.2840   -2.0200  -18.3750 H   0  0  0  0  0  0  0  0  0  0  0  0
   -7.6230   -1.5550  -22.0020 C   0  0  0  0  0  0  0  0  0  0  0  0
   -7.7540   -0.4010  -22.3200 O   0  0  0  0  0  0  0  0  0  0  0  0
   -8.0700   -4.7940  -21.9220 H   0  0  0  0  0  0  0  0  0  0  0  0
   -9.3340   -3.7540  -27.0950 H   0  0  0  0  0  0  0  0  0  0  0  0
   -6.9460   -3.4850  -27.8150 H   0  0  0  0  0  0  0  0  0  0  0  0
   -4.6690   -0.6860  -26.5530 H   0  0  0  0  0  0  0  0  0  0  0  0
   -4.0660   -1.1560  -25.0090 H   0  0  0  0  0  0  0  0  0  0  0  0
  1  2  1  0  0  0  0
  1 45  1  0  0  0  0
  1 46  1  0  0  0  0
  2  3  2  0  0  0  0
  2  4  2  0  0  0  0
  2  5  1  0  0  0  0
  5  6  2  0  0  0  0
  5 10  1  0  0  0  0
  6  7  1  0  0  0  0
  6 44  1  0  0  0  0
  7  8  2  0  0  0  0
  7 43  1  0  0  0  0
  8  9  1  0  0  0  0
  8 15  1  0  0  0  0
  9 10  2  0  0  0  0
 10 11  1  0  0  0  0
 12  9  1  6  0  0  0
 12 13  1  0  0  0  0
 12 20  1  0  0  0  0
 12 40  1  0  0  0  0
 13 14  1  0  0  0  0
 13 18  1  0  0  0  0
 13 19  1  0  0  0  0
 14 15  1  0  0  0  0
 14 16  1  0  0  0  0
 14 17  1  0  0  0  0
 20 21  1  0  0  0  0
 20 42  1  0  0  0  0
 21 22  2  0  0  0  0
 21 23  1  0  0  0  0
 23 24  1  0  0  0  0
 23 40  1  0  0  0  0
 24 25  2  0  0  0  0
 24 33  1  0  0  0  0
 25 26  1  0  0  0  0
 25 39  1  0  0  0  0
 26 27  2  0  0  0  0
 27 28  1  0  0  0  0
 27 38  1  0  0  0  0
 28 29  2  0  0  0  0
 28 33  1  0  0  0  0
 29 30  1  0  0  0  0
 29 37  1  0  0  0  0
 30 31  2  0  0  0  0
 30 36  1  0  0  0  0
 31 32  1  0  0  0  0
 31 35  1  0  0  0  0
 32 33  2  0  0  0  0
 32 34  1  0  0  0  0
 40 41  2  0  0  0  0
M  END
>  <MODEL>
      10

$$$$
best_conformers_83.pdb
 OpenBabel01292518153D

 46 50  0  0  1  0  0  0  0  0999 V2000
   -4.5040   -3.9850  -27.6240 N   0  0  0  0  0  0  0  0  0  0  0  0
   -4.7110   -2.8980  -26.3600 S   0  0  0  0  0  0  0  0  0  0  0  0
   -4.5340   -1.5960  -26.9700 O   0  0  0  0  0  0  0  0  0  0  0  0
   -3.8710   -3.3020  -25.2430 O   0  0  0  0  0  0  0  0  0  0  0  0
   -6.4030   -3.1100  -25.8550 C   0  0  0  0  0  0  0  0  0  0  0  0
   -7.4050   -3.4120  -26.7720 C   0  0  0  0  0  0  0  0  0  0  0  0
   -8.7110   -3.5340  -26.3290 C   0  0  0  0  0  0  0  0  0  0  0  0
   -9.0280   -3.3410  -24.9840 C   0  0  0  0  0  0  0  0  0  0  0  0
   -8.0350   -2.9820  -24.0640 C   0  0  0  0  0  0  0  0  0  0  0  0
   -6.7190   -2.8990  -24.5170 C   0  0  0  0  0  0  0  0  0  0  0  0
   -5.9200   -2.6610  -23.8240 H   0  0  0  0  0  0  0  0  0  0  0  0
   -8.3630   -2.7510  -22.5920 C   0  0  1  0  0  0  0  0  0  0  0  0
   -9.8810   -2.5500  -22.4350 C   0  0  0  0  0  0  0  0  0  0  0  0
  -10.6540   -3.5640  -23.2660 C   0  0  0  0  0  0  0  0  0  0  0  0
  -10.3400   -3.4770  -24.6520 O   0  0  0  0  0  0  0  0  0  0  0  0
  -10.4540   -4.5830  -22.9060 H   0  0  0  0  0  0  0  0  0  0  0  0
  -11.7320   -3.3830  -23.2160 H   0  0  0  0  0  0  0  0  0  0  0  0
  -10.1260   -1.5300  -22.7560 H   0  0  0  0  0  0  0  0  0  0  0  0
  -10.1260   -2.6510  -21.3770 H   0  0  0  0  0  0  0  0  0  0  0  0
   -7.8300   -3.8120  -21.7520 N   0  0  0  0  0  0  0  0  0  0  0  0
   -6.8520   -3.4220  -20.8820 C   0  0  0  0  0  0  0  0  0  0  0  0
   -6.1340   -4.0980  -20.1840 O   0  0  0  0  0  0  0  0  0  0  0  0
   -6.8160   -2.0150  -20.9650 N   0  0  0  0  0  0  0  0  0  0  0  0
   -6.1590   -1.2040  -20.0040 C   0  0  0  0  0  0  0  0  0  0  0  0
   -6.5290   -1.3050  -18.6870 C   0  0  0  0  0  0  0  0  0  0  0  0
   -6.0310   -0.5280  -17.6970 N   0  0  0  0  0  0  0  0  0  0  0  0
   -5.1130    0.3470  -18.0300 C   0  0  0  0  0  0  0  0  0  0  0  0
   -4.6100    0.5270  -19.3470 C   0  0  0  0  0  0  0  0  0  0  0  0
   -3.6130    1.4950  -19.6420 C   0  0  0  0  0  0  0  0  0  0  0  0
   -3.1470    1.6430  -20.9170 C   0  0  0  0  0  0  0  0  0  0  0  0
   -3.6550    0.8260  -21.9520 C   0  0  0  0  0  0  0  0  0  0  0  0
   -4.6200   -0.1140  -21.6940 C   0  0  0  0  0  0  0  0  0  0  0  0
   -5.1350   -0.2770  -20.3780 C   0  0  0  0  0  0  0  0  0  0  0  0
   -5.0180   -0.7230  -22.5040 H   0  0  0  0  0  0  0  0  0  0  0  0
   -3.2890    0.9520  -22.9650 H   0  0  0  0  0  0  0  0  0  0  0  0
   -2.3900    2.3910  -21.1420 H   0  0  0  0  0  0  0  0  0  0  0  0
   -3.2420    2.1140  -18.8320 H   0  0  0  0  0  0  0  0  0  0  0  0
   -4.7160    0.9610  -17.2250 H   0  0  0  0  0  0  0  0  0  0  0  0
   -7.2850   -2.0240  -18.3760 H   0  0  0  0  0  0  0  0  0  0  0  0
   -7.6400   -1.5420  -21.9850 C   0  0  0  0  0  0  0  0  0  0  0  0
   -7.7720   -0.3840  -22.3020 O   0  0  0  0  0  0  0  0  0  0  0  0
   -8.0900   -4.7760  -21.8790 H   0  0  0  0  0  0  0  0  0  0  0  0
   -9.5220   -3.7810  -27.0030 H   0  0  0  0  0  0  0  0  0  0  0  0
   -7.1780   -3.5430  -27.8250 H   0  0  0  0  0  0  0  0  0  0  0  0
   -3.5530   -3.8320  -27.9690 H   0  0  0  0  0  0  0  0  0  0  0  0
   -4.5920   -4.9390  -27.2860 H   0  0  0  0  0  0  0  0  0  0  0  0
  1  2  1  0  0  0  0
  1 45  1  0  0  0  0
  1 46  1  0  0  0  0
  2  3  2  0  0  0  0
  2  4  2  0  0  0  0
  2  5  1  0  0  0  0
  5  6  2  0  0  0  0
  5 10  1  0  0  0  0
  6  7  1  0  0  0  0
  6 44  1  0  0  0  0
  7  8  2  0  0  0  0
  7 43  1  0  0  0  0
  8  9  1  0  0  0  0
  8 15  1  0  0  0  0
  9 10  2  0  0  0  0
 10 11  1  0  0  0  0
 12  9  1  6  0  0  0
 12 13  1  0  0  0  0
 12 20  1  0  0  0  0
 12 40  1  0  0  0  0
 13 14  1  0  0  0  0
 13 18  1  0  0  0  0
 13 19  1  0  0  0  0
 14 15  1  0  0  0  0
 14 16  1  0  0  0  0
 14 17  1  0  0  0  0
 20 21  1  0  0  0  0
 20 42  1  0  0  0  0
 21 22  2  0  0  0  0
 21 23  1  0  0  0  0
 23 24  1  0  0  0  0
 23 40  1  0  0  0  0
 24 25  2  0  0  0  0
 24 33  1  0  0  0  0
 25 26  1  0  0  0  0
 25 39  1  0  0  0  0
 26 27  2  0  0  0  0
 27 28  1  0  0  0  0
 27 38  1  0  0  0  0
 28 29  2  0  0  0  0
 28 33  1  0  0  0  0
 29 30  1  0  0  0  0
 29 37  1  0  0  0  0
 30 31  2  0  0  0  0
 30 36  1  0  0  0  0
 31 32  1  0  0  0  0
 31 35  1  0  0  0  0
 32 33  2  0  0  0  0
 32 34  1  0  0  0  0
 40 41  2  0  0  0  0
M  END
>  <MODEL>
      11

$$$$
