best_conformers_68.pdb
 OpenBabel01292518153D

 65 70  0  0  1  0  0  0  0  0999 V2000
   -9.0600   -1.3990  -21.3230 O   0  0  0  0  0  0  0  0  0  0  0  0
   -7.9020   -1.2570  -21.6360 C   0  0  0  0  0  0  0  0  0  0  0  0
   -6.8100   -2.0770  -20.9760 C   0  0  0  0  0  0  0  0  0  0  0  0
   -6.1610   -1.2140  -19.9260 C   0  0  0  0  0  0  0  0  0  0  0  0
   -6.6000   -1.2750  -18.6290 C   0  0  0  0  0  0  0  0  0  0  0  0
   -6.1780   -0.4750  -17.6190 N   0  0  0  0  0  0  0  0  0  0  0  0
   -5.2890    0.4420  -17.9310 C   0  0  0  0  0  0  0  0  0  0  0  0
   -4.7450    0.6240  -19.2330 C   0  0  0  0  0  0  0  0  0  0  0  0
   -3.7950    1.6400  -19.5120 C   0  0  0  0  0  0  0  0  0  0  0  0
   -3.2570    1.7720  -20.7650 C   0  0  0  0  0  0  0  0  0  0  0  0
   -3.6440    0.8850  -21.7900 C   0  0  0  0  0  0  0  0  0  0  0  0
   -4.5680   -0.1030  -21.5430 C   0  0  0  0  0  0  0  0  0  0  0  0
   -5.1700   -0.2500  -20.2640 C   0  0  0  0  0  0  0  0  0  0  0  0
   -4.8490   -0.7600  -22.3580 H   0  0  0  0  0  0  0  0  0  0  0  0
   -3.2150    0.9860  -22.7840 H   0  0  0  0  0  0  0  0  0  0  0  0
   -2.5340    2.5550  -20.9740 H   0  0  0  0  0  0  0  0  0  0  0  0
   -3.5060    2.3120  -18.7070 H   0  0  0  0  0  0  0  0  0  0  0  0
   -4.9460    1.0950  -17.1280 H   0  0  0  0  0  0  0  0  0  0  0  0
   -7.3460   -2.0180  -18.3470 H   0  0  0  0  0  0  0  0  0  0  0  0
   -7.2840   -2.9480  -20.5200 H   0  0  0  0  0  0  0  0  0  0  0  0
   -6.0840   -2.4110  -21.7230 H   0  0  0  0  0  0  0  0  0  0  0  0
   -7.4330   -0.3120  -22.6010 N   0  0  0  0  0  0  0  0  0  0  0  0
   -7.5400    1.1160  -22.2660 C   0  0  0  0  0  0  0  0  0  0  0  0
   -8.9480    1.7040  -22.5520 C   0  0  0  0  0  0  0  0  0  0  0  0
  -10.0220    1.2210  -21.8770 C   0  0  0  0  0  0  0  0  0  0  0  0
  -11.6010    2.9480  -22.5080 C   0  0  0  0  0  0  0  0  0  0  0  0
  -11.6280    2.8120  -22.4490 C   0  0  0  0  0  0  0  0  0  0  0  0
  -10.6200    3.2030  -23.4620 C   0  0  0  0  0  0  0  0  0  0  0  0
  -11.2060    4.6370  -24.2120 Cl  0  0  0  0  0  0  0  0  0  0  0  0
   -9.2390    2.7080  -23.5290 C   0  0  0  0  0  0  0  0  0  0  0  0
   -8.5440    3.0920  -24.2730 H   0  0  0  0  0  0  0  0  0  0  0  0
  -12.6700    3.4950  -22.1700 H   0  0  0  0  0  0  0  0  0  0  0  0
  -10.9680    1.0140  -22.3810 H   0  0  0  0  0  0  0  0  0  0  0  0
  -10.0880    1.1020  -20.8270 H   0  0  0  0  0  0  0  0  0  0  0  0
   -7.2030    1.2100  -21.2180 H   0  0  0  0  0  0  0  0  0  0  0  0
   -6.7820    1.6590  -22.8460 H   0  0  0  0  0  0  0  0  0  0  0  0
   -7.6080   -0.7150  -23.9890 C   0  0  2  0  0  0  0  0  0  0  0  0
   -9.0360   -0.9770  -24.5320 C   0  0  0  0  0  0  0  0  0  0  0  0
   -8.7660   -1.7670  -25.8380 C   0  0  0  0  0  0  0  0  0  0  0  0
   -7.2470   -1.8940  -25.8630 C   0  0  2  0  0  0  0  0  0  0  0  0
   -6.8890   -2.0110  -24.3900 C   0  0  0  0  0  0  0  0  0  0  0  0
   -7.3240   -2.9040  -23.9320 H   0  0  0  0  0  0  0  0  0  0  0  0
   -5.8090   -1.9720  -24.1980 H   0  0  0  0  0  0  0  0  0  0  0  0
   -6.7290   -0.4930  -26.2270 N   0  3  2  0  0  0  0  0  0  0  0  0
   -5.3240   -0.4250  -26.7210 C   0  0  0  0  0  0  0  0  0  0  0  0
   -5.1770   -1.0760  -28.0850 C   0  0  0  0  0  0  0  0  0  0  0  0
   -3.7820   -0.9810  -28.7160 C   0  0  0  0  0  0  0  0  0  0  0  0
   -3.5920   -2.4030  -28.6580 O   0  0  0  0  0  0  0  0  0  0  0  0
   -4.9020   -2.5900  -28.1050 C   0  0  0  0  0  0  0  0  0  0  0  0
   -4.8510   -3.0670  -27.1170 H   0  0  0  0  0  0  0  0  0  0  0  0
   -5.5500   -3.1820  -28.7670 H   0  0  0  0  0  0  0  0  0  0  0  0
   -3.0350   -0.4420  -28.1180 H   0  0  0  0  0  0  0  0  0  0  0  0
   -3.7490   -0.6050  -29.7460 H   0  0  0  0  0  0  0  0  0  0  0  0
   -6.0040   -0.7580  -28.7290 H   0  0  0  0  0  0  0  0  0  0  0  0
   -4.6570   -0.9170  -25.9980 H   0  0  0  0  0  0  0  0  0  0  0  0
   -5.0100    0.6250  -26.7720 H   0  0  0  0  0  0  0  0  0  0  0  0
   -6.9590    0.2850  -24.9620 C   0  0  0  0  0  0  0  0  0  0  0  0
   -7.5970    1.1480  -25.1630 H   0  0  0  0  0  0  0  0  0  0  0  0
   -5.9990    0.6300  -24.5690 H   0  0  0  0  0  0  0  0  0  0  0  0
   -7.3110   -0.0900  -26.9830 H   0  0  0  0  0  0  0  0  0  0  0  0
   -6.8510   -2.6370  -26.5460 H   0  0  0  0  0  0  0  0  0  0  0  0
   -9.2540   -2.7440  -25.8310 H   0  0  0  0  0  0  0  0  0  0  0  0
   -9.0850   -1.2320  -26.7380 H   0  0  0  0  0  0  0  0  0  0  0  0
   -9.6130   -1.5660  -23.8170 H   0  0  0  0  0  0  0  0  0  0  0  0
   -9.5690   -0.0450  -24.7320 H   0  0  0  0  0  0  0  0  0  0  0  0
  1  2  2  0  0  0  0
  2  3  1  0  0  0  0
  2 22  1  0  0  0  0
  3  4  1  0  0  0  0
  3 20  1  0  0  0  0
  3 21  1  0  0  0  0
  4  5  2  0  0  0  0
  4 13  1  0  0  0  0
  5  6  1  0  0  0  0
  5 19  1  0  0  0  0
  6  7  2  0  0  0  0
  7  8  1  0  0  0  0
  7 18  1  0  0  0  0
  8  9  2  0  0  0  0
  8 13  1  0  0  0  0
  9 10  1  0  0  0  0
  9 17  1  0  0  0  0
 10 11  2  0  0  0  0
 10 16  1  0  0  0  0
 11 12  1  0  0  0  0
 11 15  1  0  0  0  0
 12 13  2  0  0  0  0
 12 14  1  0  0  0  0
 22 23  1  0  0  0  0
 23 24  1  0  0  0  0
 23 35  1  0  0  0  0
 23 36  1  0  0  0  0
 24 25  2  0  0  0  0
 24 30  1  0  0  0  0
 25 26  1  0  0  0  0
 25 34  1  0  0  0  0
 26 27  2  0  0  0  0
 26 33  1  0  0  0  0
 27 28  1  0  0  0  0
 27 32  1  0  0  0  0
 28 29  1  0  0  0  0
 28 30  2  0  0  0  0
 30 31  1  0  0  0  0
 37 22  1  1  0  0  0
 37 38  1  0  0  0  0
 37 41  1  0  0  0  0
 37 57  1  0  0  0  0
 38 39  1  0  0  0  0
 38 64  1  0  0  0  0
 38 65  1  0  0  0  0
 39 40  1  0  0  0  0
 39 62  1  0  0  0  0
 39 63  1  0  0  0  0
 40 41  1  0  0  0  0
 40 44  1  0  0  0  0
 40 61  1  6  0  0  0
 41 42  1  0  0  0  0
 41 43  1  0  0  0  0
 44 45  1  0  0  0  0
 44 57  1  0  0  0  0
 44 60  1  6  0  0  0
 45 46  1  0  0  0  0
 45 55  1  0  0  0  0
 45 56  1  0  0  0  0
 46 47  1  0  0  0  0
 46 49  1  0  0  0  0
 46 54  1  0  0  0  0
 47 48  1  0  0  0  0
 47 52  1  0  0  0  0
 47 53  1  0  0  0  0
 48 49  1  0  0  0  0
 49 50  1  0  0  0  0
 49 51  1  0  0  0  0
 57 58  1  0  0  0  0
 57 59  1  0  0  0  0
M  CHG  1  44   1
M  END
>  <MODEL>
       1

$$$$
