best_conformers_59.pdb
 OpenBabel01292518153D

 60 65  0  0  1  0  0  0  0  0999 V2000
   -6.3540   -1.7300  -29.5310 C   0  0  0  0  0  0  0  0  0  0  0  0
   -6.7350   -2.6420  -28.4780 N   0  0  0  0  0  0  0  0  0  0  0  0
   -6.0280   -2.6880  -27.3260 C   0  0  0  0  0  0  0  0  0  0  0  0
   -5.0220   -2.0240  -27.1200 O   0  0  0  0  0  0  0  0  0  0  0  0
   -6.5850   -3.6630  -26.2940 C   0  0  0  0  0  0  0  0  0  0  0  0
   -7.6000   -3.0450  -25.4570 N   0  0  0  0  0  0  0  0  0  0  0  0
   -7.2120   -2.1260  -24.3950 C   0  0  0  0  0  0  0  0  0  0  0  0
   -7.9320   -2.4660  -23.0700 C   0  0  2  0  0  0  0  0  0  0  0  0
   -7.6260   -1.3600  -22.0440 C   0  0  0  0  0  0  0  0  0  0  0  0
   -7.9820   -0.2010  -22.0930 O   0  0  0  0  0  0  0  0  0  0  0  0
   -6.8350   -1.8900  -21.0380 N   0  0  0  0  0  0  0  0  0  0  0  0
   -6.2050   -1.1070  -20.0330 C   0  0  0  0  0  0  0  0  0  0  0  0
   -6.5480   -1.2860  -18.7180 C   0  0  0  0  0  0  0  0  0  0  0  0
   -6.0510   -0.5650  -17.6800 N   0  0  0  0  0  0  0  0  0  0  0  0
   -5.1420    0.3430  -17.9580 C   0  0  0  0  0  0  0  0  0  0  0  0
   -4.6350    0.5830  -19.2700 C   0  0  0  0  0  0  0  0  0  0  0  0
   -3.6280    1.5550  -19.5290 C   0  0  0  0  0  0  0  0  0  0  0  0
   -3.1160    1.7010  -20.7910 C   0  0  0  0  0  0  0  0  0  0  0  0
   -3.5730    0.8820  -21.8470 C   0  0  0  0  0  0  0  0  0  0  0  0
   -4.5570   -0.0480  -21.6270 C   0  0  0  0  0  0  0  0  0  0  0  0
   -5.1430   -0.1930  -20.3370 C   0  0  0  0  0  0  0  0  0  0  0  0
   -4.8910   -0.6880  -22.4380 H   0  0  0  0  0  0  0  0  0  0  0  0
   -3.1460    0.9930  -22.8400 H   0  0  0  0  0  0  0  0  0  0  0  0
   -2.3490    2.4450  -20.9900 H   0  0  0  0  0  0  0  0  0  0  0  0
   -3.2650    2.1700  -18.7090 H   0  0  0  0  0  0  0  0  0  0  0  0
   -4.7440    0.9240  -17.1240 H   0  0  0  0  0  0  0  0  0  0  0  0
   -7.2850   -2.0440  -18.4550 H   0  0  0  0  0  0  0  0  0  0  0  0
   -6.3980   -3.2390  -21.3070 C   0  0  0  0  0  0  0  0  0  0  0  0
   -7.4010   -3.7410  -22.3430 C   0  0  2  0  0  0  0  0  0  0  0  0
   -6.8180   -4.8820  -23.1840 C   0  0  0  0  0  0  0  0  0  0  0  0
   -6.4040   -5.9580  -22.2420 C   0  0  0  0  0  0  0  0  0  0  0  0
   -7.2380   -6.7470  -21.5820 N   0  0  0  0  0  0  0  0  0  0  0  0
   -6.4580   -7.4200  -20.7450 N   0  0  0  0  0  0  0  0  0  0  0  0
   -5.2200   -7.0400  -20.8780 N   0  5  0  0  0  0  0  0  0  0  0  0
   -5.1530   -6.1110  -21.8300 N   0  0  0  0  0  0  0  0  0  0  0  0
   -7.5550   -5.2430  -23.9020 H   0  0  0  0  0  0  0  0  0  0  0  0
   -5.9100   -4.5740  -23.7030 H   0  0  0  0  0  0  0  0  0  0  0  0
   -8.2490   -4.1860  -21.8050 H   0  0  0  0  0  0  0  0  0  0  0  0
   -5.3760   -3.2610  -21.7200 H   0  0  0  0  0  0  0  0  0  0  0  0
   -6.3930   -3.8560  -20.4050 H   0  0  0  0  0  0  0  0  0  0  0  0
   -9.4110   -2.6280  -23.3730 C   0  0  0  0  0  0  0  0  0  0  0  0
  -10.3440   -2.5030  -22.3340 C   0  0  0  0  0  0  0  0  0  0  0  0
  -11.6050   -3.0580  -22.4760 C   0  0  0  0  0  0  0  0  0  0  0  0
  -12.7220   -3.1030  -21.1400 Cl  0  0  0  0  0  0  0  0  0  0  0  0
  -12.0080   -3.6470  -23.6750 C   0  0  0  0  0  0  0  0  0  0  0  0
  -11.1340   -3.6340  -24.7520 C   0  0  0  0  0  0  0  0  0  0  0  0
   -9.8500   -3.1130  -24.6130 C   0  0  0  0  0  0  0  0  0  0  0  0
   -8.9180   -3.2140  -25.7860 C   0  0  0  0  0  0  0  0  0  0  0  0
   -9.2920   -3.5020  -26.9180 O   0  0  0  0  0  0  0  0  0  0  0  0
  -11.4070   -4.0470  -25.7170 H   0  0  0  0  0  0  0  0  0  0  0  0
  -13.0000   -4.0840  -23.7530 H   0  0  0  0  0  0  0  0  0  0  0  0
  -10.0550   -2.0050  -21.4120 H   0  0  0  0  0  0  0  0  0  0  0  0
   -7.4740   -1.0880  -24.6580 H   0  0  0  0  0  0  0  0  0  0  0  0
   -6.1230   -2.1860  -24.2740 H   0  0  0  0  0  0  0  0  0  0  0  0
   -7.0330   -4.5300  -26.7900 H   0  0  0  0  0  0  0  0  0  0  0  0
   -5.7440   -3.9980  -25.6790 H   0  0  0  0  0  0  0  0  0  0  0  0
   -7.6370   -3.1010  -28.5190 H   0  0  0  0  0  0  0  0  0  0  0  0
   -6.8730   -2.0110  -30.4490 H   0  0  0  0  0  0  0  0  0  0  0  0
   -5.2750   -1.7960  -29.6910 H   0  0  0  0  0  0  0  0  0  0  0  0
   -6.6020   -0.6920  -29.2780 H   0  0  0  0  0  0  0  0  0  0  0  0
  1  2  1  0  0  0  0
  1 58  1  0  0  0  0
  1 59  1  0  0  0  0
  1 60  1  0  0  0  0
  2  3  1  0  0  0  0
  2 57  1  0  0  0  0
  3  4  2  0  0  0  0
  3  5  1  0  0  0  0
  5  6  1  0  0  0  0
  5 55  1  0  0  0  0
  5 56  1  0  0  0  0
  6  7  1  0  0  0  0
  6 48  1  0  0  0  0
  7  8  1  0  0  0  0
  7 53  1  0  0  0  0
  7 54  1  0  0  0  0
  8  9  1  1  0  0  0
  8 29  1  0  0  0  0
  8 41  1  0  0  0  0
  9 10  2  0  0  0  0
  9 11  1  0  0  0  0
 11 12  1  0  0  0  0
 11 28  1  0  0  0  0
 12 13  2  0  0  0  0
 12 21  1  0  0  0  0
 13 14  1  0  0  0  0
 13 27  1  0  0  0  0
 14 15  2  0  0  0  0
 15 16  1  0  0  0  0
 15 26  1  0  0  0  0
 16 17  2  0  0  0  0
 16 21  1  0  0  0  0
 17 18  1  0  0  0  0
 17 25  1  0  0  0  0
 18 19  2  0  0  0  0
 18 24  1  0  0  0  0
 19 20  1  0  0  0  0
 19 23  1  0  0  0  0
 20 21  2  0  0  0  0
 20 22  1  0  0  0  0
 28 29  1  0  0  0  0
 28 39  1  0  0  0  0
 28 40  1  0  0  0  0
 29 30  1  0  0  0  0
 29 38  1  1  0  0  0
 30 31  1  0  0  0  0
 30 36  1  0  0  0  0
 30 37  1  0  0  0  0
 31 32  1  0  0  0  0
 31 35  2  0  0  0  0
 32 33  2  0  0  0  0
 33 34  1  0  0  0  0
 34 35  1  0  0  0  0
 41 42  2  0  0  0  0
 41 47  1  0  0  0  0
 42 43  1  0  0  0  0
 42 52  1  0  0  0  0
 43 44  1  0  0  0  0
 43 45  2  0  0  0  0
 45 46  1  0  0  0  0
 45 51  1  0  0  0  0
 46 47  2  0  0  0  0
 46 50  1  0  0  0  0
 47 48  1  0  0  0  0
 48 49  2  0  0  0  0
M  CHG  1  34  -1
M  END
>  <MODEL>
       1

$$$$
best_conformers_59.pdb
 OpenBabel01292518153D

 60 65  0  0  1  0  0  0  0  0999 V2000
   -6.3670   -1.7600  -29.5280 C   0  0  0  0  0  0  0  0  0  0  0  0
   -6.7360   -2.6940  -28.4880 N   0  0  0  0  0  0  0  0  0  0  0  0
   -6.0390   -2.7130  -27.3280 C   0  0  0  0  0  0  0  0  0  0  0  0
   -5.0740   -1.9950  -27.1050 O   0  0  0  0  0  0  0  0  0  0  0  0
   -6.5730   -3.6880  -26.2890 C   0  0  0  0  0  0  0  0  0  0  0  0
   -7.5770   -3.0610  -25.4430 N   0  0  0  0  0  0  0  0  0  0  0  0
   -7.1870   -2.1460  -24.3860 C   0  0  0  0  0  0  0  0  0  0  0  0
   -7.9240   -2.4710  -23.0690 C   0  0  2  0  0  0  0  0  0  0  0  0
   -7.6090   -1.3650  -22.0460 C   0  0  0  0  0  0  0  0  0  0  0  0
   -7.9510   -0.2010  -22.1030 O   0  0  0  0  0  0  0  0  0  0  0  0
   -6.8260   -1.8980  -21.0350 N   0  0  0  0  0  0  0  0  0  0  0  0
   -6.1940   -1.1140  -20.0270 C   0  0  0  0  0  0  0  0  0  0  0  0
   -6.5400   -1.2930  -18.7150 C   0  0  0  0  0  0  0  0  0  0  0  0
   -6.0430   -0.5690  -17.6780 N   0  0  0  0  0  0  0  0  0  0  0  0
   -5.1370    0.3400  -17.9610 C   0  0  0  0  0  0  0  0  0  0  0  0
   -4.6300    0.5820  -19.2710 C   0  0  0  0  0  0  0  0  0  0  0  0
   -3.6220    1.5490  -19.5430 C   0  0  0  0  0  0  0  0  0  0  0  0
   -3.1190    1.6930  -20.8050 C   0  0  0  0  0  0  0  0  0  0  0  0
   -3.5800    0.8720  -21.8580 C   0  0  0  0  0  0  0  0  0  0  0  0
   -4.5580   -0.0580  -21.6260 C   0  0  0  0  0  0  0  0  0  0  0  0
   -5.1380   -0.1970  -20.3360 C   0  0  0  0  0  0  0  0  0  0  0  0
   -4.8980   -0.7030  -22.4320 H   0  0  0  0  0  0  0  0  0  0  0  0
   -3.1660    0.9860  -22.8540 H   0  0  0  0  0  0  0  0  0  0  0  0
   -2.3570    2.4390  -21.0140 H   0  0  0  0  0  0  0  0  0  0  0  0
   -3.2570    2.1710  -18.7290 H   0  0  0  0  0  0  0  0  0  0  0  0
   -4.7480    0.9280  -17.1280 H   0  0  0  0  0  0  0  0  0  0  0  0
   -7.2750   -2.0550  -18.4510 H   0  0  0  0  0  0  0  0  0  0  0  0
   -6.3940   -3.2520  -21.2990 C   0  0  0  0  0  0  0  0  0  0  0  0
   -7.3950   -3.7530  -22.3480 C   0  0  2  0  0  0  0  0  0  0  0  0
   -6.8240   -4.9040  -23.1970 C   0  0  0  0  0  0  0  0  0  0  0  0
   -6.4360   -5.9840  -22.2520 C   0  0  0  0  0  0  0  0  0  0  0  0
   -5.1980   -6.1190  -21.7970 N   0  0  0  0  0  0  0  0  0  0  0  0
   -5.2790   -7.0690  -20.8690 N   0  0  0  0  0  0  0  0  0  0  0  0
   -6.5190   -7.4530  -20.7660 N   0  5  0  0  0  0  0  0  0  0  0  0
   -7.2760   -6.8020  -21.6390 N   0  0  0  0  0  0  0  0  0  0  0  0
   -5.9080   -4.6070  -23.7100 H   0  0  0  0  0  0  0  0  0  0  0  0
   -7.5550   -5.2550  -23.9310 H   0  0  0  0  0  0  0  0  0  0  0  0
   -8.2560   -4.1750  -21.8150 H   0  0  0  0  0  0  0  0  0  0  0  0
   -6.4120   -3.8660  -20.3920 H   0  0  0  0  0  0  0  0  0  0  0  0
   -5.3660   -3.2780  -21.7000 H   0  0  0  0  0  0  0  0  0  0  0  0
   -9.4090   -2.6090  -23.3720 C   0  0  0  0  0  0  0  0  0  0  0  0
  -10.3390   -2.4840  -22.3320 C   0  0  0  0  0  0  0  0  0  0  0  0
  -11.6040   -3.0340  -22.4730 C   0  0  0  0  0  0  0  0  0  0  0  0
  -12.7240   -3.0930  -21.1430 Cl  0  0  0  0  0  0  0  0  0  0  0  0
  -12.0050   -3.6040  -23.6760 C   0  0  0  0  0  0  0  0  0  0  0  0
  -11.1330   -3.6130  -24.7480 C   0  0  0  0  0  0  0  0  0  0  0  0
   -9.8420   -3.1020  -24.6090 C   0  0  0  0  0  0  0  0  0  0  0  0
   -8.8920   -3.2320  -25.7670 C   0  0  0  0  0  0  0  0  0  0  0  0
   -9.2470   -3.5330  -26.9000 O   0  0  0  0  0  0  0  0  0  0  0  0
  -11.4120   -4.0500  -25.7000 H   0  0  0  0  0  0  0  0  0  0  0  0
  -12.9930   -4.0450  -23.7500 H   0  0  0  0  0  0  0  0  0  0  0  0
  -10.0550   -1.9870  -21.4140 H   0  0  0  0  0  0  0  0  0  0  0  0
   -7.4210   -1.1090  -24.6670 H   0  0  0  0  0  0  0  0  0  0  0  0
   -6.1010   -2.2080  -24.2570 H   0  0  0  0  0  0  0  0  0  0  0  0
   -5.7240   -4.0270  -25.6880 H   0  0  0  0  0  0  0  0  0  0  0  0
   -7.0380   -4.5570  -26.7650 H   0  0  0  0  0  0  0  0  0  0  0  0
   -7.6380   -3.1560  -28.5220 H   0  0  0  0  0  0  0  0  0  0  0  0
   -6.8860   -2.0250  -30.4490 H   0  0  0  0  0  0  0  0  0  0  0  0
   -6.6220   -0.7290  -29.2540 H   0  0  0  0  0  0  0  0  0  0  0  0
   -5.2880   -1.8210  -29.7010 H   0  0  0  0  0  0  0  0  0  0  0  0
  1  2  1  0  0  0  0
  1 58  1  0  0  0  0
  1 59  1  0  0  0  0
  1 60  1  0  0  0  0
  2  3  1  0  0  0  0
  2 57  1  0  0  0  0
  3  4  2  0  0  0  0
  3  5  1  0  0  0  0
  5  6  1  0  0  0  0
  5 55  1  0  0  0  0
  5 56  1  0  0  0  0
  6  7  1  0  0  0  0
  6 48  1  0  0  0  0
  7  8  1  0  0  0  0
  7 53  1  0  0  0  0
  7 54  1  0  0  0  0
  8  9  1  1  0  0  0
  8 29  1  0  0  0  0
  8 41  1  0  0  0  0
  9 10  2  0  0  0  0
  9 11  1  0  0  0  0
 11 12  1  0  0  0  0
 11 28  1  0  0  0  0
 12 13  2  0  0  0  0
 12 21  1  0  0  0  0
 13 14  1  0  0  0  0
 13 27  1  0  0  0  0
 14 15  2  0  0  0  0
 15 16  1  0  0  0  0
 15 26  1  0  0  0  0
 16 17  2  0  0  0  0
 16 21  1  0  0  0  0
 17 18  1  0  0  0  0
 17 25  1  0  0  0  0
 18 19  2  0  0  0  0
 18 24  1  0  0  0  0
 19 20  1  0  0  0  0
 19 23  1  0  0  0  0
 20 21  2  0  0  0  0
 20 22  1  0  0  0  0
 28 29  1  0  0  0  0
 28 39  1  0  0  0  0
 28 40  1  0  0  0  0
 29 30  1  0  0  0  0
 29 38  1  1  0  0  0
 30 31  1  0  0  0  0
 30 36  1  0  0  0  0
 30 37  1  0  0  0  0
 31 32  1  0  0  0  0
 31 35  2  0  0  0  0
 32 33  2  0  0  0  0
 33 34  1  0  0  0  0
 34 35  1  0  0  0  0
 41 42  2  0  0  0  0
 41 47  1  0  0  0  0
 42 43  1  0  0  0  0
 42 52  1  0  0  0  0
 43 44  1  0  0  0  0
 43 45  2  0  0  0  0
 45 46  1  0  0  0  0
 45 51  1  0  0  0  0
 46 47  2  0  0  0  0
 46 50  1  0  0  0  0
 47 48  1  0  0  0  0
 48 49  2  0  0  0  0
M  CHG  1  34  -1
M  END
>  <MODEL>
       2

$$$$
best_conformers_59.pdb
 OpenBabel01292518153D

 60 65  0  0  1  0  0  0  0  0999 V2000
   -6.0900   -7.2720  -25.9650 C   0  0  0  0  0  0  0  0  0  0  0  0
   -6.6170   -5.9810  -26.3840 N   0  0  0  0  0  0  0  0  0  0  0  0
   -5.8990   -4.8530  -26.1460 C   0  0  0  0  0  0  0  0  0  0  0  0
   -4.7740   -4.8930  -25.6560 O   0  0  0  0  0  0  0  0  0  0  0  0
   -6.5720   -3.5110  -26.4910 C   0  0  0  0  0  0  0  0  0  0  0  0
   -7.5310   -3.0610  -25.4780 N   0  0  0  0  0  0  0  0  0  0  0  0
   -7.1180   -2.2020  -24.3670 C   0  0  0  0  0  0  0  0  0  0  0  0
   -7.8870   -2.4940  -23.0440 C   0  0  2  0  0  0  0  0  0  0  0  0
   -7.5600   -1.3920  -22.0320 C   0  0  0  0  0  0  0  0  0  0  0  0
   -7.8880   -0.2230  -22.0750 O   0  0  0  0  0  0  0  0  0  0  0  0
   -6.8030   -1.9350  -21.0130 N   0  0  0  0  0  0  0  0  0  0  0  0
   -6.1810   -1.1450  -20.0220 C   0  0  0  0  0  0  0  0  0  0  0  0
   -6.5330   -1.3140  -18.7090 C   0  0  0  0  0  0  0  0  0  0  0  0
   -6.0410   -0.5780  -17.6830 N   0  0  0  0  0  0  0  0  0  0  0  0
   -5.1370    0.3310  -17.9800 C   0  0  0  0  0  0  0  0  0  0  0  0
   -4.6270    0.5540  -19.2940 C   0  0  0  0  0  0  0  0  0  0  0  0
   -3.6240    1.5230  -19.5710 C   0  0  0  0  0  0  0  0  0  0  0  0
   -3.1290    1.6690  -20.8410 C   0  0  0  0  0  0  0  0  0  0  0  0
   -3.6010    0.8520  -21.8930 C   0  0  0  0  0  0  0  0  0  0  0  0
   -4.5750   -0.0800  -21.6540 C   0  0  0  0  0  0  0  0  0  0  0  0
   -5.1360   -0.2270  -20.3520 C   0  0  0  0  0  0  0  0  0  0  0  0
   -4.9340   -0.7190  -22.4580 H   0  0  0  0  0  0  0  0  0  0  0  0
   -3.2020    0.9800  -22.8970 H   0  0  0  0  0  0  0  0  0  0  0  0
   -2.3750    2.4230  -21.0500 H   0  0  0  0  0  0  0  0  0  0  0  0
   -3.2730    2.1510  -18.7570 H   0  0  0  0  0  0  0  0  0  0  0  0
   -4.7570    0.9370  -17.1570 H   0  0  0  0  0  0  0  0  0  0  0  0
   -7.2800   -2.0640  -18.4480 H   0  0  0  0  0  0  0  0  0  0  0  0
   -6.3830   -3.2940  -21.2470 C   0  0  0  0  0  0  0  0  0  0  0  0
   -7.3850   -3.7720  -22.2970 C   0  0  2  0  0  0  0  0  0  0  0  0
   -6.8280   -4.9110  -23.1520 C   0  0  0  0  0  0  0  0  0  0  0  0
   -6.4510   -6.0280  -22.2580 C   0  0  0  0  0  0  0  0  0  0  0  0
   -7.3390   -6.8650  -21.7470 N   0  0  0  0  0  0  0  0  0  0  0  0
   -6.6720   -7.5230  -20.8140 N   0  0  0  0  0  0  0  0  0  0  0  0
   -5.4340   -7.1220  -20.7730 N   0  5  0  0  0  0  0  0  0  0  0  0
   -5.2590   -6.1660  -21.6890 N   0  0  0  0  0  0  0  0  0  0  0  0
   -5.9430   -4.5900  -23.6970 H   0  0  0  0  0  0  0  0  0  0  0  0
   -7.5740   -5.2670  -23.8580 H   0  0  0  0  0  0  0  0  0  0  0  0
   -8.2660   -4.1400  -21.7560 H   0  0  0  0  0  0  0  0  0  0  0  0
   -5.3450   -3.3560  -21.6170 H   0  0  0  0  0  0  0  0  0  0  0  0
   -6.4160   -3.8860  -20.3280 H   0  0  0  0  0  0  0  0  0  0  0  0
   -9.3760   -2.6310  -23.3160 C   0  0  0  0  0  0  0  0  0  0  0  0
  -10.3250   -2.4730  -22.2900 C   0  0  0  0  0  0  0  0  0  0  0  0
  -11.6050   -2.9790  -22.4560 C   0  0  0  0  0  0  0  0  0  0  0  0
  -12.7370   -2.9750  -21.1430 Cl  0  0  0  0  0  0  0  0  0  0  0  0
  -12.0100   -3.5440  -23.6610 C   0  0  0  0  0  0  0  0  0  0  0  0
  -11.1040   -3.6160  -24.6980 C   0  0  0  0  0  0  0  0  0  0  0  0
   -9.7890   -3.1770  -24.5360 C   0  0  0  0  0  0  0  0  0  0  0  0
   -8.8210   -3.4810  -25.6460 C   0  0  0  0  0  0  0  0  0  0  0  0
   -9.1560   -4.1430  -26.6260 O   0  0  0  0  0  0  0  0  0  0  0  0
  -11.4000   -4.0640  -25.6390 H   0  0  0  0  0  0  0  0  0  0  0  0
  -13.0190   -3.9310  -23.7720 H   0  0  0  0  0  0  0  0  0  0  0  0
  -10.0690   -1.9950  -21.3510 H   0  0  0  0  0  0  0  0  0  0  0  0
   -6.0440   -2.3750  -24.2070 H   0  0  0  0  0  0  0  0  0  0  0  0
   -7.2570   -1.1360  -24.6130 H   0  0  0  0  0  0  0  0  0  0  0  0
   -7.1460   -3.6090  -27.4170 H   0  0  0  0  0  0  0  0  0  0  0  0
   -5.7690   -2.7810  -26.6260 H   0  0  0  0  0  0  0  0  0  0  0  0
   -7.5870   -5.9120  -26.6690 H   0  0  0  0  0  0  0  0  0  0  0  0
   -5.8680   -7.2880  -24.8870 H   0  0  0  0  0  0  0  0  0  0  0  0
   -6.8240   -8.0490  -26.1990 H   0  0  0  0  0  0  0  0  0  0  0  0
   -5.1500   -7.4930  -26.4800 H   0  0  0  0  0  0  0  0  0  0  0  0
  1  2  1  0  0  0  0
  1 58  1  0  0  0  0
  1 59  1  0  0  0  0
  1 60  1  0  0  0  0
  2  3  1  0  0  0  0
  2 57  1  0  0  0  0
  3  4  2  0  0  0  0
  3  5  1  0  0  0  0
  5  6  1  0  0  0  0
  5 55  1  0  0  0  0
  5 56  1  0  0  0  0
  6  7  1  0  0  0  0
  6 48  1  0  0  0  0
  7  8  1  0  0  0  0
  7 53  1  0  0  0  0
  7 54  1  0  0  0  0
  8  9  1  1  0  0  0
  8 29  1  0  0  0  0
  8 41  1  0  0  0  0
  9 10  2  0  0  0  0
  9 11  1  0  0  0  0
 11 12  1  0  0  0  0
 11 28  1  0  0  0  0
 12 13  2  0  0  0  0
 12 21  1  0  0  0  0
 13 14  1  0  0  0  0
 13 27  1  0  0  0  0
 14 15  2  0  0  0  0
 15 16  1  0  0  0  0
 15 26  1  0  0  0  0
 16 17  2  0  0  0  0
 16 21  1  0  0  0  0
 17 18  1  0  0  0  0
 17 25  1  0  0  0  0
 18 19  2  0  0  0  0
 18 24  1  0  0  0  0
 19 20  1  0  0  0  0
 19 23  1  0  0  0  0
 20 21  2  0  0  0  0
 20 22  1  0  0  0  0
 28 29  1  0  0  0  0
 28 39  1  0  0  0  0
 28 40  1  0  0  0  0
 29 30  1  0  0  0  0
 29 38  1  1  0  0  0
 30 31  1  0  0  0  0
 30 36  1  0  0  0  0
 30 37  1  0  0  0  0
 31 32  1  0  0  0  0
 31 35  2  0  0  0  0
 32 33  2  0  0  0  0
 33 34  1  0  0  0  0
 34 35  1  0  0  0  0
 41 42  2  0  0  0  0
 41 47  1  0  0  0  0
 42 43  1  0  0  0  0
 42 52  1  0  0  0  0
 43 44  1  0  0  0  0
 43 45  2  0  0  0  0
 45 46  1  0  0  0  0
 45 51  1  0  0  0  0
 46 47  2  0  0  0  0
 46 50  1  0  0  0  0
 47 48  1  0  0  0  0
 48 49  2  0  0  0  0
M  CHG  1  34  -1
M  END
>  <MODEL>
       3

$$$$
best_conformers_59.pdb
 OpenBabel01292518153D

 60 65  0  0  1  0  0  0  0  0999 V2000
   -7.7380   -1.2870  -29.6250 C   0  0  0  0  0  0  0  0  0  0  0  0
   -7.3850   -2.3450  -28.6990 N   0  0  0  0  0  0  0  0  0  0  0  0
   -6.7970   -2.0150  -27.5170 C   0  0  0  0  0  0  0  0  0  0  0  0
   -6.4740   -0.8720  -27.2200 O   0  0  0  0  0  0  0  0  0  0  0  0
   -6.5810   -3.2040  -26.5750 C   0  0  0  0  0  0  0  0  0  0  0  0
   -7.4910   -3.1330  -25.4410 N   0  0  0  0  0  0  0  0  0  0  0  0
   -7.0380   -2.3670  -24.2800 C   0  0  0  0  0  0  0  0  0  0  0  0
   -7.8190   -2.6870  -22.9850 C   0  0  2  0  0  0  0  0  0  0  0  0
   -7.5240   -1.5600  -21.9880 C   0  0  0  0  0  0  0  0  0  0  0  0
   -7.8850   -0.4010  -22.0540 O   0  0  0  0  0  0  0  0  0  0  0  0
   -6.7320   -2.0630  -20.9790 N   0  0  0  0  0  0  0  0  0  0  0  0
   -6.1470   -1.2170  -20.0130 C   0  0  0  0  0  0  0  0  0  0  0  0
   -6.5320   -1.3220  -18.7020 C   0  0  0  0  0  0  0  0  0  0  0  0
   -6.0550   -0.5530  -17.6920 N   0  0  0  0  0  0  0  0  0  0  0  0
   -5.1400    0.3350  -18.0130 C   0  0  0  0  0  0  0  0  0  0  0  0
   -4.6380    0.5290  -19.3340 C   0  0  0  0  0  0  0  0  0  0  0  0
   -3.6400    1.4970  -19.6190 C   0  0  0  0  0  0  0  0  0  0  0  0
   -3.1620    1.6440  -20.8920 C   0  0  0  0  0  0  0  0  0  0  0  0
   -3.6510    0.8380  -21.9430 C   0  0  0  0  0  0  0  0  0  0  0  0
   -4.6180   -0.1000  -21.6970 C   0  0  0  0  0  0  0  0  0  0  0  0
   -5.1430   -0.2710  -20.3800 C   0  0  0  0  0  0  0  0  0  0  0  0
   -4.9880   -0.7120  -22.5150 H   0  0  0  0  0  0  0  0  0  0  0  0
   -3.2520    0.9600  -22.9460 H   0  0  0  0  0  0  0  0  0  0  0  0
   -2.3950    2.3810  -21.1030 H   0  0  0  0  0  0  0  0  0  0  0  0
   -3.2700    2.1110  -18.8030 H   0  0  0  0  0  0  0  0  0  0  0  0
   -4.7260    0.9500  -17.2130 H   0  0  0  0  0  0  0  0  0  0  0  0
   -7.2980   -2.0510  -18.4390 H   0  0  0  0  0  0  0  0  0  0  0  0
   -6.3050   -3.4340  -21.1700 C   0  0  0  0  0  0  0  0  0  0  0  0
   -7.3310   -3.9470  -22.1740 C   0  0  2  0  0  0  0  0  0  0  0  0
   -6.9390   -5.2140  -22.9480 C   0  0  0  0  0  0  0  0  0  0  0  0
   -5.5060   -5.4130  -23.3440 C   0  0  0  0  0  0  0  0  0  0  0  0
   -4.9870   -5.1850  -24.5440 N   0  0  0  0  0  0  0  0  0  0  0  0
   -3.7300   -5.6180  -24.4710 N   0  0  0  0  0  0  0  0  0  0  0  0
   -3.5060   -6.0850  -23.2710 N   0  5  0  0  0  0  0  0  0  0  0  0
   -4.6110   -5.9730  -22.5390 N   0  0  0  0  0  0  0  0  0  0  0  0
   -7.5560   -5.2810  -23.8430 H   0  0  0  0  0  0  0  0  0  0  0  0
   -7.1730   -6.0710  -22.3130 H   0  0  0  0  0  0  0  0  0  0  0  0
   -8.2170   -4.2250  -21.5910 H   0  0  0  0  0  0  0  0  0  0  0  0
   -5.2770   -3.5070  -21.5560 H   0  0  0  0  0  0  0  0  0  0  0  0
   -6.3390   -3.9650  -20.2150 H   0  0  0  0  0  0  0  0  0  0  0  0
   -9.2940   -2.8080  -23.3070 C   0  0  0  0  0  0  0  0  0  0  0  0
  -10.2390   -2.6120  -22.2980 C   0  0  0  0  0  0  0  0  0  0  0  0
  -11.5640   -2.9410  -22.5210 C   0  0  0  0  0  0  0  0  0  0  0  0
  -12.7280   -2.7990  -21.2510 Cl  0  0  0  0  0  0  0  0  0  0  0  0
  -11.9970   -3.4500  -23.7390 C   0  0  0  0  0  0  0  0  0  0  0  0
  -11.0850   -3.5520  -24.7680 C   0  0  0  0  0  0  0  0  0  0  0  0
   -9.7470   -3.2250  -24.5580 C   0  0  0  0  0  0  0  0  0  0  0  0
   -8.8100   -3.4070  -25.6980 C   0  0  0  0  0  0  0  0  0  0  0  0
   -9.1990   -3.8010  -26.7950 O   0  0  0  0  0  0  0  0  0  0  0  0
  -11.3690   -3.9130  -25.7490 H   0  0  0  0  0  0  0  0  0  0  0  0
  -13.0250   -3.7840  -23.8460 H   0  0  0  0  0  0  0  0  0  0  0  0
   -9.9270   -2.2120  -21.3440 H   0  0  0  0  0  0  0  0  0  0  0  0
   -5.9770   -2.6000  -24.1300 H   0  0  0  0  0  0  0  0  0  0  0  0
   -7.0910   -1.2860  -24.4890 H   0  0  0  0  0  0  0  0  0  0  0  0
   -6.7560   -4.1460  -27.1040 H   0  0  0  0  0  0  0  0  0  0  0  0
   -5.5530   -3.2000  -26.1920 H   0  0  0  0  0  0  0  0  0  0  0  0
   -7.8830   -3.2280  -28.7620 H   0  0  0  0  0  0  0  0  0  0  0  0
   -6.8260   -0.7780  -29.9520 H   0  0  0  0  0  0  0  0  0  0  0  0
   -8.2250   -1.7090  -30.5040 H   0  0  0  0  0  0  0  0  0  0  0  0
   -8.4180   -0.5620  -29.1590 H   0  0  0  0  0  0  0  0  0  0  0  0
  1  2  1  0  0  0  0
  1 58  1  0  0  0  0
  1 59  1  0  0  0  0
  1 60  1  0  0  0  0
  2  3  1  0  0  0  0
  2 57  1  0  0  0  0
  3  4  2  0  0  0  0
  3  5  1  0  0  0  0
  5  6  1  0  0  0  0
  5 55  1  0  0  0  0
  5 56  1  0  0  0  0
  6  7  1  0  0  0  0
  6 48  1  0  0  0  0
  7  8  1  0  0  0  0
  7 53  1  0  0  0  0
  7 54  1  0  0  0  0
  8  9  1  1  0  0  0
  8 29  1  0  0  0  0
  8 41  1  0  0  0  0
  9 10  2  0  0  0  0
  9 11  1  0  0  0  0
 11 12  1  0  0  0  0
 11 28  1  0  0  0  0
 12 13  2  0  0  0  0
 12 21  1  0  0  0  0
 13 14  1  0  0  0  0
 13 27  1  0  0  0  0
 14 15  2  0  0  0  0
 15 16  1  0  0  0  0
 15 26  1  0  0  0  0
 16 17  2  0  0  0  0
 16 21  1  0  0  0  0
 17 18  1  0  0  0  0
 17 25  1  0  0  0  0
 18 19  2  0  0  0  0
 18 24  1  0  0  0  0
 19 20  1  0  0  0  0
 19 23  1  0  0  0  0
 20 21  2  0  0  0  0
 20 22  1  0  0  0  0
 28 29  1  0  0  0  0
 28 39  1  0  0  0  0
 28 40  1  0  0  0  0
 29 30  1  0  0  0  0
 29 38  1  1  0  0  0
 30 31  1  0  0  0  0
 30 36  1  0  0  0  0
 30 37  1  0  0  0  0
 31 32  1  0  0  0  0
 31 35  2  0  0  0  0
 32 33  2  0  0  0  0
 33 34  1  0  0  0  0
 34 35  1  0  0  0  0
 41 42  2  0  0  0  0
 41 47  1  0  0  0  0
 42 43  1  0  0  0  0
 42 52  1  0  0  0  0
 43 44  1  0  0  0  0
 43 45  2  0  0  0  0
 45 46  1  0  0  0  0
 45 51  1  0  0  0  0
 46 47  2  0  0  0  0
 46 50  1  0  0  0  0
 47 48  1  0  0  0  0
 48 49  2  0  0  0  0
M  CHG  1  34  -1
M  END
>  <MODEL>
       4

$$$$
