best_conformers_93.pdb
 OpenBabel01292518153D

 62 67  0  0  1  0  0  0  0  0999 V2000
   -7.8560   -7.1410  -26.4600 C   0  0  0  0  0  0  0  0  0  0  0  0
   -6.8720   -6.4140  -27.3680 C   0  0  0  0  0  0  0  0  0  0  0  0
   -5.7540   -5.8340  -26.6420 N   0  0  0  0  0  0  0  0  0  0  0  0
   -4.7610   -6.6570  -26.2590 N   0  0  0  0  0  0  0  0  0  0  0  0
   -3.8930   -5.8800  -25.6270 C   0  0  0  0  0  0  0  0  0  0  0  0
   -4.3290   -4.5380  -25.5980 C   0  0  0  0  0  0  0  0  0  0  0  0
   -5.5480   -4.5430  -26.2530 C   0  0  0  0  0  0  0  0  0  0  0  0
   -6.5140   -3.4120  -26.4860 C   0  0  0  0  0  0  0  0  0  0  0  0
   -7.5030   -3.2250  -25.4260 N   0  0  0  0  0  0  0  0  0  0  0  0
   -7.0590   -2.4440  -24.2740 C   0  0  0  0  0  0  0  0  0  0  0  0
   -7.8530   -2.7090  -22.9790 C   0  0  2  0  0  0  0  0  0  0  0  0
   -7.5330   -1.5590  -22.0040 C   0  0  0  0  0  0  0  0  0  0  0  0
   -7.8780   -0.3990  -22.1060 O   0  0  0  0  0  0  0  0  0  0  0  0
   -6.7730   -2.0470  -20.9670 N   0  0  0  0  0  0  0  0  0  0  0  0
   -6.1730   -1.1910  -20.0090 C   0  0  0  0  0  0  0  0  0  0  0  0
   -6.5320   -1.2970  -18.6900 C   0  0  0  0  0  0  0  0  0  0  0  0
   -6.0260   -0.5360  -17.6900 N   0  0  0  0  0  0  0  0  0  0  0  0
   -5.1110    0.3470  -18.0180 C   0  0  0  0  0  0  0  0  0  0  0  0
   -4.6190    0.5400  -19.3420 C   0  0  0  0  0  0  0  0  0  0  0  0
   -3.6140    1.5010  -19.6360 C   0  0  0  0  0  0  0  0  0  0  0  0
   -3.1420    1.6470  -20.9120 C   0  0  0  0  0  0  0  0  0  0  0  0
   -3.6470    0.8320  -21.9510 C   0  0  0  0  0  0  0  0  0  0  0  0
   -4.6200   -0.0990  -21.6930 C   0  0  0  0  0  0  0  0  0  0  0  0
   -5.1510   -0.2570  -20.3790 C   0  0  0  0  0  0  0  0  0  0  0  0
   -4.9990   -0.7150  -22.5030 H   0  0  0  0  0  0  0  0  0  0  0  0
   -3.2740    0.9590  -22.9630 H   0  0  0  0  0  0  0  0  0  0  0  0
   -2.3860    2.3950  -21.1350 H   0  0  0  0  0  0  0  0  0  0  0  0
   -3.2400    2.1200  -18.8250 H   0  0  0  0  0  0  0  0  0  0  0  0
   -4.7120    0.9630  -17.2120 H   0  0  0  0  0  0  0  0  0  0  0  0
   -7.2830   -2.0280  -18.3940 H   0  0  0  0  0  0  0  0  0  0  0  0
   -6.4280   -3.4500  -21.0980 C   0  0  0  0  0  0  0  0  0  0  0  0
   -7.4220   -3.9740  -22.1500 C   0  0  2  0  0  0  0  0  0  0  0  0
   -6.8900   -5.1670  -22.9450 C   0  0  0  0  0  0  0  0  0  0  0  0
   -7.5980   -5.4790  -23.7200 H   0  0  0  0  0  0  0  0  0  0  0  0
   -6.7150   -6.0240  -22.2840 H   0  0  0  0  0  0  0  0  0  0  0  0
   -5.9410   -4.9230  -23.4330 H   0  0  0  0  0  0  0  0  0  0  0  0
   -8.3390   -4.2800  -21.6290 H   0  0  0  0  0  0  0  0  0  0  0  0
   -6.5080   -3.9460  -20.1260 H   0  0  0  0  0  0  0  0  0  0  0  0
   -5.3880   -3.5700  -21.4400 H   0  0  0  0  0  0  0  0  0  0  0  0
   -9.3230   -2.7430  -23.3190 C   0  0  0  0  0  0  0  0  0  0  0  0
  -10.2370   -2.4920  -22.2930 C   0  0  0  0  0  0  0  0  0  0  0  0
  -11.5750   -2.6810  -22.5350 C   0  0  0  0  0  0  0  0  0  0  0  0
  -12.4760   -2.3980  -21.5850 F   0  0  0  0  0  0  0  0  0  0  0  0
  -12.0340   -3.1610  -23.7510 C   0  0  0  0  0  0  0  0  0  0  0  0
  -11.1370   -3.3740  -24.7890 C   0  0  0  0  0  0  0  0  0  0  0  0
   -9.7750   -3.1620  -24.5760 C   0  0  0  0  0  0  0  0  0  0  0  0
   -8.8220   -3.4810  -25.6880 C   0  0  0  0  0  0  0  0  0  0  0  0
   -9.2070   -3.9740  -26.7450 O   0  0  0  0  0  0  0  0  0  0  0  0
  -11.4540   -3.6950  -25.7790 H   0  0  0  0  0  0  0  0  0  0  0  0
  -13.0920   -3.3770  -23.7930 H   0  0  0  0  0  0  0  0  0  0  0  0
   -9.9070   -2.1770  -21.3120 H   0  0  0  0  0  0  0  0  0  0  0  0
   -6.0010   -2.6850  -24.1150 H   0  0  0  0  0  0  0  0  0  0  0  0
   -7.1560   -1.3640  -24.4730 H   0  0  0  0  0  0  0  0  0  0  0  0
   -5.9210   -2.4920  -26.5470 H   0  0  0  0  0  0  0  0  0  0  0  0
   -7.0670   -3.5210  -27.4230 H   0  0  0  0  0  0  0  0  0  0  0  0
   -3.8400   -3.6790  -25.1500 H   0  0  0  0  0  0  0  0  0  0  0  0
   -3.0120   -6.3430  -25.1970 H   0  0  0  0  0  0  0  0  0  0  0  0
   -6.4310   -7.1060  -28.0960 H   0  0  0  0  0  0  0  0  0  0  0  0
   -7.3770   -5.6060  -27.9060 H   0  0  0  0  0  0  0  0  0  0  0  0
   -7.3580   -7.9440  -25.9060 H   0  0  0  0  0  0  0  0  0  0  0  0
   -8.6490   -7.5790  -27.0730 H   0  0  0  0  0  0  0  0  0  0  0  0
   -8.3240   -6.4550  -25.7480 H   0  0  0  0  0  0  0  0  0  0  0  0
  1  2  1  0  0  0  0
  1 60  1  0  0  0  0
  1 61  1  0  0  0  0
  1 62  1  0  0  0  0
  2  3  1  0  0  0  0
  2 58  1  0  0  0  0
  2 59  1  0  0  0  0
  3  4  1  0  0  0  0
  3  7  1  0  0  0  0
  4  5  2  0  0  0  0
  5  6  1  0  0  0  0
  5 57  1  0  0  0  0
  6  7  2  0  0  0  0
  6 56  1  0  0  0  0
  7  8  1  0  0  0  0
  8  9  1  0  0  0  0
  8 54  1  0  0  0  0
  8 55  1  0  0  0  0
  9 10  1  0  0  0  0
  9 47  1  0  0  0  0
 10 11  1  0  0  0  0
 10 52  1  0  0  0  0
 10 53  1  0  0  0  0
 11 12  1  1  0  0  0
 11 32  1  0  0  0  0
 11 40  1  0  0  0  0
 12 13  2  0  0  0  0
 12 14  1  0  0  0  0
 14 15  1  0  0  0  0
 14 31  1  0  0  0  0
 15 16  2  0  0  0  0
 15 24  1  0  0  0  0
 16 17  1  0  0  0  0
 16 30  1  0  0  0  0
 17 18  2  0  0  0  0
 18 19  1  0  0  0  0
 18 29  1  0  0  0  0
 19 20  2  0  0  0  0
 19 24  1  0  0  0  0
 20 21  1  0  0  0  0
 20 28  1  0  0  0  0
 21 22  2  0  0  0  0
 21 27  1  0  0  0  0
 22 23  1  0  0  0  0
 22 26  1  0  0  0  0
 23 24  2  0  0  0  0
 23 25  1  0  0  0  0
 31 32  1  0  0  0  0
 31 38  1  0  0  0  0
 31 39  1  0  0  0  0
 32 33  1  0  0  0  0
 32 37  1  1  0  0  0
 33 34  1  0  0  0  0
 33 35  1  0  0  0  0
 33 36  1  0  0  0  0
 40 41  2  0  0  0  0
 40 46  1  0  0  0  0
 41 42  1  0  0  0  0
 41 51  1  0  0  0  0
 42 43  1  0  0  0  0
 42 44  2  0  0  0  0
 44 45  1  0  0  0  0
 44 50  1  0  0  0  0
 45 46  2  0  0  0  0
 45 49  1  0  0  0  0
 46 47  1  0  0  0  0
 47 48  2  0  0  0  0
M  END
>  <MODEL>
       1

$$$$
best_conformers_93.pdb
 OpenBabel01292518153D

 62 67  0  0  1  0  0  0  0  0999 V2000
   -6.2270   -6.8970  -27.9510 C   0  0  0  0  0  0  0  0  0  0  0  0
   -6.3410   -6.4960  -26.4800 C   0  0  0  0  0  0  0  0  0  0  0  0
   -5.3020   -5.5650  -26.0650 N   0  0  0  0  0  0  0  0  0  0  0  0
   -4.1180   -6.0530  -25.6580 N   0  0  0  0  0  0  0  0  0  0  0  0
   -3.3630   -4.9910  -25.4240 C   0  0  0  0  0  0  0  0  0  0  0  0
   -4.0630   -3.7960  -25.6920 C   0  0  0  0  0  0  0  0  0  0  0  0
   -5.3210   -4.2050  -26.0910 C   0  0  0  0  0  0  0  0  0  0  0  0
   -6.5250   -3.3960  -26.4780 C   0  0  0  0  0  0  0  0  0  0  0  0
   -7.5130   -3.2460  -25.4060 N   0  0  0  0  0  0  0  0  0  0  0  0
   -7.0910   -2.4200  -24.2810 C   0  0  0  0  0  0  0  0  0  0  0  0
   -7.8630   -2.7070  -22.9790 C   0  0  2  0  0  0  0  0  0  0  0  0
   -7.5510   -1.5580  -21.9950 C   0  0  0  0  0  0  0  0  0  0  0  0
   -7.9080   -0.4020  -22.0880 O   0  0  0  0  0  0  0  0  0  0  0  0
   -6.7780   -2.0460  -20.9650 N   0  0  0  0  0  0  0  0  0  0  0  0
   -6.1740   -1.1890  -20.0090 C   0  0  0  0  0  0  0  0  0  0  0  0
   -6.5310   -1.2920  -18.6900 C   0  0  0  0  0  0  0  0  0  0  0  0
   -6.0200   -0.5330  -17.6900 N   0  0  0  0  0  0  0  0  0  0  0  0
   -5.1070    0.3510  -18.0170 C   0  0  0  0  0  0  0  0  0  0  0  0
   -4.6160    0.5420  -19.3410 C   0  0  0  0  0  0  0  0  0  0  0  0
   -3.6100    1.5040  -19.6360 C   0  0  0  0  0  0  0  0  0  0  0  0
   -3.1430    1.6480  -20.9150 C   0  0  0  0  0  0  0  0  0  0  0  0
   -3.6500    0.8330  -21.9500 C   0  0  0  0  0  0  0  0  0  0  0  0
   -4.6210   -0.1000  -21.6900 C   0  0  0  0  0  0  0  0  0  0  0  0
   -5.1500   -0.2540  -20.3750 C   0  0  0  0  0  0  0  0  0  0  0  0
   -5.0040   -0.7160  -22.4970 H   0  0  0  0  0  0  0  0  0  0  0  0
   -3.2810    0.9590  -22.9650 H   0  0  0  0  0  0  0  0  0  0  0  0
   -2.3850    2.3950  -21.1410 H   0  0  0  0  0  0  0  0  0  0  0  0
   -3.2330    2.1230  -18.8290 H   0  0  0  0  0  0  0  0  0  0  0  0
   -4.7100    0.9670  -17.2100 H   0  0  0  0  0  0  0  0  0  0  0  0
   -7.2800   -2.0230  -18.3880 H   0  0  0  0  0  0  0  0  0  0  0  0
   -6.4180   -3.4450  -21.1080 C   0  0  0  0  0  0  0  0  0  0  0  0
   -7.4060   -3.9730  -22.1640 C   0  0  2  0  0  0  0  0  0  0  0  0
   -6.8410   -5.1400  -22.9710 C   0  0  0  0  0  0  0  0  0  0  0  0
   -7.5410   -5.4480  -23.7550 H   0  0  0  0  0  0  0  0  0  0  0  0
   -5.8960   -4.8560  -23.4460 H   0  0  0  0  0  0  0  0  0  0  0  0
   -6.6470   -6.0060  -22.3260 H   0  0  0  0  0  0  0  0  0  0  0  0
   -8.3170   -4.3080  -21.6470 H   0  0  0  0  0  0  0  0  0  0  0  0
   -6.4960   -3.9560  -20.1440 H   0  0  0  0  0  0  0  0  0  0  0  0
   -5.3750   -3.5590  -21.4490 H   0  0  0  0  0  0  0  0  0  0  0  0
   -9.3380   -2.7650  -23.3060 C   0  0  0  0  0  0  0  0  0  0  0  0
  -10.2520   -2.5180  -22.2760 C   0  0  0  0  0  0  0  0  0  0  0  0
  -11.5930   -2.7150  -22.5340 C   0  0  0  0  0  0  0  0  0  0  0  0
  -12.4970   -2.4500  -21.5820 F   0  0  0  0  0  0  0  0  0  0  0  0
  -12.0550   -3.1910  -23.7480 C   0  0  0  0  0  0  0  0  0  0  0  0
  -11.1560   -3.3950  -24.7790 C   0  0  0  0  0  0  0  0  0  0  0  0
   -9.7940   -3.1860  -24.5630 C   0  0  0  0  0  0  0  0  0  0  0  0
   -8.8290   -3.5230  -25.6690 C   0  0  0  0  0  0  0  0  0  0  0  0
   -9.1950   -4.0510  -26.7140 O   0  0  0  0  0  0  0  0  0  0  0  0
  -11.4630   -3.7200  -25.7680 H   0  0  0  0  0  0  0  0  0  0  0  0
  -13.1150   -3.3950  -23.7810 H   0  0  0  0  0  0  0  0  0  0  0  0
   -9.9350   -2.2120  -21.2820 H   0  0  0  0  0  0  0  0  0  0  0  0
   -7.2390   -1.3510  -24.5020 H   0  0  0  0  0  0  0  0  0  0  0  0
   -6.0240   -2.6040  -24.1240 H   0  0  0  0  0  0  0  0  0  0  0  0
   -7.0600   -3.8240  -27.3290 H   0  0  0  0  0  0  0  0  0  0  0  0
   -6.1650   -2.4050  -26.7850 H   0  0  0  0  0  0  0  0  0  0  0  0
   -3.7210   -2.7710  -25.5950 H   0  0  0  0  0  0  0  0  0  0  0  0
   -2.3520   -5.1530  -25.0620 H   0  0  0  0  0  0  0  0  0  0  0  0
   -7.3060   -6.0160  -26.2790 H   0  0  0  0  0  0  0  0  0  0  0  0
   -6.2330   -7.3630  -25.8180 H   0  0  0  0  0  0  0  0  0  0  0  0
   -5.2720   -7.3970  -28.1470 H   0  0  0  0  0  0  0  0  0  0  0  0
   -7.0430   -7.5810  -28.2040 H   0  0  0  0  0  0  0  0  0  0  0  0
   -6.3060   -6.0200  -28.6090 H   0  0  0  0  0  0  0  0  0  0  0  0
  1  2  1  0  0  0  0
  1 60  1  0  0  0  0
  1 61  1  0  0  0  0
  1 62  1  0  0  0  0
  2  3  1  0  0  0  0
  2 58  1  0  0  0  0
  2 59  1  0  0  0  0
  3  4  1  0  0  0  0
  3  7  1  0  0  0  0
  4  5  2  0  0  0  0
  5  6  1  0  0  0  0
  5 57  1  0  0  0  0
  6  7  2  0  0  0  0
  6 56  1  0  0  0  0
  7  8  1  0  0  0  0
  8  9  1  0  0  0  0
  8 54  1  0  0  0  0
  8 55  1  0  0  0  0
  9 10  1  0  0  0  0
  9 47  1  0  0  0  0
 10 11  1  0  0  0  0
 10 52  1  0  0  0  0
 10 53  1  0  0  0  0
 11 12  1  1  0  0  0
 11 32  1  0  0  0  0
 11 40  1  0  0  0  0
 12 13  2  0  0  0  0
 12 14  1  0  0  0  0
 14 15  1  0  0  0  0
 14 31  1  0  0  0  0
 15 16  2  0  0  0  0
 15 24  1  0  0  0  0
 16 17  1  0  0  0  0
 16 30  1  0  0  0  0
 17 18  2  0  0  0  0
 18 19  1  0  0  0  0
 18 29  1  0  0  0  0
 19 20  2  0  0  0  0
 19 24  1  0  0  0  0
 20 21  1  0  0  0  0
 20 28  1  0  0  0  0
 21 22  2  0  0  0  0
 21 27  1  0  0  0  0
 22 23  1  0  0  0  0
 22 26  1  0  0  0  0
 23 24  2  0  0  0  0
 23 25  1  0  0  0  0
 31 32  1  0  0  0  0
 31 38  1  0  0  0  0
 31 39  1  0  0  0  0
 32 33  1  0  0  0  0
 32 37  1  1  0  0  0
 33 34  1  0  0  0  0
 33 35  1  0  0  0  0
 33 36  1  0  0  0  0
 40 41  2  0  0  0  0
 40 46  1  0  0  0  0
 41 42  1  0  0  0  0
 41 51  1  0  0  0  0
 42 43  1  0  0  0  0
 42 44  2  0  0  0  0
 44 45  1  0  0  0  0
 44 50  1  0  0  0  0
 45 46  2  0  0  0  0
 45 49  1  0  0  0  0
 46 47  1  0  0  0  0
 47 48  2  0  0  0  0
M  END
>  <MODEL>
       2

$$$$
best_conformers_93.pdb
 OpenBabel01292518153D

 62 67  0  0  1  0  0  0  0  0999 V2000
   -6.6770   -2.0530  -29.8680 C   0  0  0  0  0  0  0  0  0  0  0  0
   -7.0370   -1.5140  -28.4950 C   0  0  0  0  0  0  0  0  0  0  0  0
   -5.8640   -1.5400  -27.6400 N   0  0  0  0  0  0  0  0  0  0  0  0
   -4.9190   -0.6080  -27.8490 N   0  0  0  0  0  0  0  0  0  0  0  0
   -3.9080   -0.9640  -27.0660 C   0  0  0  0  0  0  0  0  0  0  0  0
   -4.1970   -2.1440  -26.3520 C   0  0  0  0  0  0  0  0  0  0  0  0
   -5.4750   -2.4880  -26.7500 C   0  0  0  0  0  0  0  0  0  0  0  0
   -6.3650   -3.6070  -26.2990 C   0  0  0  0  0  0  0  0  0  0  0  0
   -7.4240   -3.1750  -25.3900 N   0  0  0  0  0  0  0  0  0  0  0  0
   -7.0220   -2.3680  -24.2470 C   0  0  0  0  0  0  0  0  0  0  0  0
   -7.8150   -2.6930  -22.9670 C   0  0  2  0  0  0  0  0  0  0  0  0
   -7.5190   -1.5650  -21.9740 C   0  0  0  0  0  0  0  0  0  0  0  0
   -7.8620   -0.4030  -22.0670 O   0  0  0  0  0  0  0  0  0  0  0  0
   -6.7420   -2.0590  -20.9530 N   0  0  0  0  0  0  0  0  0  0  0  0
   -6.1500   -1.2030  -19.9950 C   0  0  0  0  0  0  0  0  0  0  0  0
   -6.5230   -1.3070  -18.6810 C   0  0  0  0  0  0  0  0  0  0  0  0
   -6.0320   -0.5400  -17.6780 N   0  0  0  0  0  0  0  0  0  0  0  0
   -5.1190    0.3480  -18.0030 C   0  0  0  0  0  0  0  0  0  0  0  0
   -4.6230    0.5400  -19.3250 C   0  0  0  0  0  0  0  0  0  0  0  0
   -3.6240    1.5080  -19.6150 C   0  0  0  0  0  0  0  0  0  0  0  0
   -3.1480    1.6540  -20.8890 C   0  0  0  0  0  0  0  0  0  0  0  0
   -3.6450    0.8410  -21.9320 C   0  0  0  0  0  0  0  0  0  0  0  0
   -4.6140   -0.0960  -21.6820 C   0  0  0  0  0  0  0  0  0  0  0  0
   -5.1410   -0.2600  -20.3660 C   0  0  0  0  0  0  0  0  0  0  0  0
   -4.9900   -0.7100  -22.4970 H   0  0  0  0  0  0  0  0  0  0  0  0
   -3.2620    0.9700  -22.9400 H   0  0  0  0  0  0  0  0  0  0  0  0
   -2.3870    2.3990  -21.1090 H   0  0  0  0  0  0  0  0  0  0  0  0
   -3.2540    2.1280  -18.8030 H   0  0  0  0  0  0  0  0  0  0  0  0
   -4.7200    0.9690  -17.2000 H   0  0  0  0  0  0  0  0  0  0  0  0
   -7.2800   -2.0380  -18.3990 H   0  0  0  0  0  0  0  0  0  0  0  0
   -6.3540   -3.4460  -21.1170 C   0  0  0  0  0  0  0  0  0  0  0  0
   -7.3420   -3.9660  -22.1730 C   0  0  2  0  0  0  0  0  0  0  0  0
   -6.7820   -5.1260  -22.9880 C   0  0  0  0  0  0  0  0  0  0  0  0
   -5.8430   -4.8500  -23.4810 H   0  0  0  0  0  0  0  0  0  0  0  0
   -7.4900   -5.4430  -23.7580 H   0  0  0  0  0  0  0  0  0  0  0  0
   -6.5740   -5.9860  -22.3420 H   0  0  0  0  0  0  0  0  0  0  0  0
   -8.2400   -4.3160  -21.6450 H   0  0  0  0  0  0  0  0  0  0  0  0
   -6.4240   -3.9770  -20.1630 H   0  0  0  0  0  0  0  0  0  0  0  0
   -5.3110   -3.5340  -21.4610 H   0  0  0  0  0  0  0  0  0  0  0  0
   -9.2870   -2.7560  -23.3140 C   0  0  0  0  0  0  0  0  0  0  0  0
  -10.2330   -2.5060  -22.3150 C   0  0  0  0  0  0  0  0  0  0  0  0
  -11.5600   -2.8010  -22.5430 C   0  0  0  0  0  0  0  0  0  0  0  0
  -12.4740   -2.5780  -21.5860 F   0  0  0  0  0  0  0  0  0  0  0  0
  -11.9810   -3.3510  -23.7410 C   0  0  0  0  0  0  0  0  0  0  0  0
  -11.0630   -3.5360  -24.7600 C   0  0  0  0  0  0  0  0  0  0  0  0
   -9.7160   -3.2210  -24.5610 C   0  0  0  0  0  0  0  0  0  0  0  0
   -8.7340   -3.4650  -25.6710 C   0  0  0  0  0  0  0  0  0  0  0  0
   -9.0960   -3.9080  -26.7510 O   0  0  0  0  0  0  0  0  0  0  0  0
  -11.3550   -3.9180  -25.7340 H   0  0  0  0  0  0  0  0  0  0  0  0
  -13.0280   -3.6040  -23.8350 H   0  0  0  0  0  0  0  0  0  0  0  0
   -9.9460   -2.0980  -21.3550 H   0  0  0  0  0  0  0  0  0  0  0  0
   -5.9520   -2.5170  -24.0670 H   0  0  0  0  0  0  0  0  0  0  0  0
   -7.1720   -1.3000  -24.4550 H   0  0  0  0  0  0  0  0  0  0  0  0
   -6.8390   -4.1200  -27.1410 H   0  0  0  0  0  0  0  0  0  0  0  0
   -5.7290   -4.3450  -25.7900 H   0  0  0  0  0  0  0  0  0  0  0  0
   -3.5870   -2.6580  -25.6160 H   0  0  0  0  0  0  0  0  0  0  0  0
   -3.0200   -0.3450  -27.0270 H   0  0  0  0  0  0  0  0  0  0  0  0
   -7.3250   -0.4600  -28.5970 H   0  0  0  0  0  0  0  0  0  0  0  0
   -7.8560   -2.0670  -28.0120 H   0  0  0  0  0  0  0  0  0  0  0  0
   -7.5150   -1.9370  -30.5530 H   0  0  0  0  0  0  0  0  0  0  0  0
   -6.3540   -3.1020  -29.8270 H   0  0  0  0  0  0  0  0  0  0  0  0
   -5.8500   -1.4590  -30.2590 H   0  0  0  0  0  0  0  0  0  0  0  0
  1  2  1  0  0  0  0
  1 60  1  0  0  0  0
  1 61  1  0  0  0  0
  1 62  1  0  0  0  0
  2  3  1  0  0  0  0
  2 58  1  0  0  0  0
  2 59  1  0  0  0  0
  3  4  1  0  0  0  0
  3  7  1  0  0  0  0
  4  5  2  0  0  0  0
  5  6  1  0  0  0  0
  5 57  1  0  0  0  0
  6  7  2  0  0  0  0
  6 56  1  0  0  0  0
  7  8  1  0  0  0  0
  8  9  1  0  0  0  0
  8 54  1  0  0  0  0
  8 55  1  0  0  0  0
  9 10  1  0  0  0  0
  9 47  1  0  0  0  0
 10 11  1  0  0  0  0
 10 52  1  0  0  0  0
 10 53  1  0  0  0  0
 11 12  1  1  0  0  0
 11 32  1  0  0  0  0
 11 40  1  0  0  0  0
 12 13  2  0  0  0  0
 12 14  1  0  0  0  0
 14 15  1  0  0  0  0
 14 31  1  0  0  0  0
 15 16  2  0  0  0  0
 15 24  1  0  0  0  0
 16 17  1  0  0  0  0
 16 30  1  0  0  0  0
 17 18  2  0  0  0  0
 18 19  1  0  0  0  0
 18 29  1  0  0  0  0
 19 20  2  0  0  0  0
 19 24  1  0  0  0  0
 20 21  1  0  0  0  0
 20 28  1  0  0  0  0
 21 22  2  0  0  0  0
 21 27  1  0  0  0  0
 22 23  1  0  0  0  0
 22 26  1  0  0  0  0
 23 24  2  0  0  0  0
 23 25  1  0  0  0  0
 31 32  1  0  0  0  0
 31 38  1  0  0  0  0
 31 39  1  0  0  0  0
 32 33  1  0  0  0  0
 32 37  1  1  0  0  0
 33 34  1  0  0  0  0
 33 35  1  0  0  0  0
 33 36  1  0  0  0  0
 40 41  2  0  0  0  0
 40 46  1  0  0  0  0
 41 42  1  0  0  0  0
 41 51  1  0  0  0  0
 42 43  1  0  0  0  0
 42 44  2  0  0  0  0
 44 45  1  0  0  0  0
 44 50  1  0  0  0  0
 45 46  2  0  0  0  0
 45 49  1  0  0  0  0
 46 47  1  0  0  0  0
 47 48  2  0  0  0  0
M  END
>  <MODEL>
       3

$$$$
best_conformers_93.pdb
 OpenBabel01292518153D

 62 67  0  0  1  0  0  0  0  0999 V2000
   -2.7020   -2.5180  -26.9420 C   0  0  0  0  0  0  0  0  0  0  0  0
   -3.7860   -1.6040  -26.3820 C   0  0  0  0  0  0  0  0  0  0  0  0
   -4.9760   -1.5390  -27.2210 N   0  0  0  0  0  0  0  0  0  0  0  0
   -5.0400   -0.5940  -28.1740 N   0  0  0  0  0  0  0  0  0  0  0  0
   -6.1600   -0.8480  -28.8380 C   0  0  0  0  0  0  0  0  0  0  0  0
   -6.8240   -1.9780  -28.3230 C   0  0  0  0  0  0  0  0  0  0  0  0
   -6.0310   -2.3990  -27.2800 C   0  0  0  0  0  0  0  0  0  0  0  0
   -6.2880   -3.5440  -26.3470 C   0  0  0  0  0  0  0  0  0  0  0  0
   -7.3320   -3.2610  -25.3650 N   0  0  0  0  0  0  0  0  0  0  0  0
   -6.9800   -2.3790  -24.2670 C   0  0  0  0  0  0  0  0  0  0  0  0
   -7.7920   -2.6860  -22.9970 C   0  0  2  0  0  0  0  0  0  0  0  0
   -7.5290   -1.5600  -21.9890 C   0  0  0  0  0  0  0  0  0  0  0  0
   -7.9030   -0.4060  -22.0750 O   0  0  0  0  0  0  0  0  0  0  0  0
   -6.7600   -2.0510  -20.9590 N   0  0  0  0  0  0  0  0  0  0  0  0
   -6.1600   -1.1970  -20.0010 C   0  0  0  0  0  0  0  0  0  0  0  0
   -6.5240   -1.2980  -18.6840 C   0  0  0  0  0  0  0  0  0  0  0  0
   -6.0250   -0.5300  -17.6830 N   0  0  0  0  0  0  0  0  0  0  0  0
   -5.1100    0.3540  -18.0110 C   0  0  0  0  0  0  0  0  0  0  0  0
   -4.6180    0.5430  -19.3350 C   0  0  0  0  0  0  0  0  0  0  0  0
   -3.6140    1.5040  -19.6350 C   0  0  0  0  0  0  0  0  0  0  0  0
   -3.1460    1.6470  -20.9120 C   0  0  0  0  0  0  0  0  0  0  0  0
   -3.6530    0.8340  -21.9520 C   0  0  0  0  0  0  0  0  0  0  0  0
   -4.6240   -0.0970  -21.6900 C   0  0  0  0  0  0  0  0  0  0  0  0
   -5.1460   -0.2560  -20.3720 C   0  0  0  0  0  0  0  0  0  0  0  0
   -5.0060   -0.7180  -22.4970 H   0  0  0  0  0  0  0  0  0  0  0  0
   -3.2780    0.9560  -22.9650 H   0  0  0  0  0  0  0  0  0  0  0  0
   -2.3860    2.3910  -21.1400 H   0  0  0  0  0  0  0  0  0  0  0  0
   -3.2320    2.1250  -18.8270 H   0  0  0  0  0  0  0  0  0  0  0  0
   -4.7040    0.9720  -17.2090 H   0  0  0  0  0  0  0  0  0  0  0  0
   -7.2820   -2.0260  -18.3940 H   0  0  0  0  0  0  0  0  0  0  0  0
   -6.3760   -3.4410  -21.1250 C   0  0  0  0  0  0  0  0  0  0  0  0
   -7.3400   -3.9640  -22.2020 C   0  0  2  0  0  0  0  0  0  0  0  0
   -6.7520   -5.1130  -23.0210 C   0  0  0  0  0  0  0  0  0  0  0  0
   -5.8240   -4.8110  -23.5200 H   0  0  0  0  0  0  0  0  0  0  0  0
   -6.5130   -5.9690  -22.3830 H   0  0  0  0  0  0  0  0  0  0  0  0
   -7.4510   -5.4490  -23.7920 H   0  0  0  0  0  0  0  0  0  0  0  0
   -8.2470   -4.3330  -21.7000 H   0  0  0  0  0  0  0  0  0  0  0  0
   -6.4640   -3.9750  -20.1740 H   0  0  0  0  0  0  0  0  0  0  0  0
   -5.3300   -3.5240  -21.4570 H   0  0  0  0  0  0  0  0  0  0  0  0
   -9.2490   -2.7610  -23.3830 C   0  0  0  0  0  0  0  0  0  0  0  0
  -10.2100   -2.5560  -22.3890 C   0  0  0  0  0  0  0  0  0  0  0  0
  -11.5410   -2.7810  -22.6550 C   0  0  0  0  0  0  0  0  0  0  0  0
  -12.4800   -2.5080  -21.7310 F   0  0  0  0  0  0  0  0  0  0  0  0
  -11.9290   -3.3010  -23.8760 C   0  0  0  0  0  0  0  0  0  0  0  0
  -11.0010   -3.4530  -24.8870 C   0  0  0  0  0  0  0  0  0  0  0  0
   -9.6530   -3.1900  -24.6480 C   0  0  0  0  0  0  0  0  0  0  0  0
   -8.6420   -3.4870  -25.7080 C   0  0  0  0  0  0  0  0  0  0  0  0
   -8.9750   -3.9350  -26.7960 O   0  0  0  0  0  0  0  0  0  0  0  0
  -11.2970   -3.7980  -25.8710 H   0  0  0  0  0  0  0  0  0  0  0  0
  -12.9520   -3.6240  -23.9730 H   0  0  0  0  0  0  0  0  0  0  0  0
   -9.9270   -2.1840  -21.4130 H   0  0  0  0  0  0  0  0  0  0  0  0
   -7.1690   -1.3300  -24.5410 H   0  0  0  0  0  0  0  0  0  0  0  0
   -5.9090   -2.4910  -24.0630 H   0  0  0  0  0  0  0  0  0  0  0  0
   -6.6300   -4.4080  -26.9250 H   0  0  0  0  0  0  0  0  0  0  0  0
   -5.3740   -3.8340  -25.8090 H   0  0  0  0  0  0  0  0  0  0  0  0
   -7.7370   -2.4640  -28.6420 H   0  0  0  0  0  0  0  0  0  0  0  0
   -6.4410   -0.2070  -29.6640 H   0  0  0  0  0  0  0  0  0  0  0  0
   -4.0830   -1.9230  -25.3770 H   0  0  0  0  0  0  0  0  0  0  0  0
   -3.4270   -0.5760  -26.3100 H   0  0  0  0  0  0  0  0  0  0  0  0
   -3.0640   -3.5470  -27.0480 H   0  0  0  0  0  0  0  0  0  0  0  0
   -2.3690   -2.1690  -27.9230 H   0  0  0  0  0  0  0  0  0  0  0  0
   -1.8390   -2.5280  -26.2710 H   0  0  0  0  0  0  0  0  0  0  0  0
  1  2  1  0  0  0  0
  1 60  1  0  0  0  0
  1 61  1  0  0  0  0
  1 62  1  0  0  0  0
  2  3  1  0  0  0  0
  2 58  1  0  0  0  0
  2 59  1  0  0  0  0
  3  4  1  0  0  0  0
  3  7  1  0  0  0  0
  4  5  2  0  0  0  0
  5  6  1  0  0  0  0
  5 57  1  0  0  0  0
  6  7  2  0  0  0  0
  6 56  1  0  0  0  0
  7  8  1  0  0  0  0
  8  9  1  0  0  0  0
  8 54  1  0  0  0  0
  8 55  1  0  0  0  0
  9 10  1  0  0  0  0
  9 47  1  0  0  0  0
 10 11  1  0  0  0  0
 10 52  1  0  0  0  0
 10 53  1  0  0  0  0
 11 12  1  1  0  0  0
 11 32  1  0  0  0  0
 11 40  1  0  0  0  0
 12 13  2  0  0  0  0
 12 14  1  0  0  0  0
 14 15  1  0  0  0  0
 14 31  1  0  0  0  0
 15 16  2  0  0  0  0
 15 24  1  0  0  0  0
 16 17  1  0  0  0  0
 16 30  1  0  0  0  0
 17 18  2  0  0  0  0
 18 19  1  0  0  0  0
 18 29  1  0  0  0  0
 19 20  2  0  0  0  0
 19 24  1  0  0  0  0
 20 21  1  0  0  0  0
 20 28  1  0  0  0  0
 21 22  2  0  0  0  0
 21 27  1  0  0  0  0
 22 23  1  0  0  0  0
 22 26  1  0  0  0  0
 23 24  2  0  0  0  0
 23 25  1  0  0  0  0
 31 32  1  0  0  0  0
 31 38  1  0  0  0  0
 31 39  1  0  0  0  0
 32 33  1  0  0  0  0
 32 37  1  1  0  0  0
 33 34  1  0  0  0  0
 33 35  1  0  0  0  0
 33 36  1  0  0  0  0
 40 41  2  0  0  0  0
 40 46  1  0  0  0  0
 41 42  1  0  0  0  0
 41 51  1  0  0  0  0
 42 43  1  0  0  0  0
 42 44  2  0  0  0  0
 44 45  1  0  0  0  0
 44 50  1  0  0  0  0
 45 46  2  0  0  0  0
 45 49  1  0  0  0  0
 46 47  1  0  0  0  0
 47 48  2  0  0  0  0
M  END
>  <MODEL>
       4

$$$$
