best_conformers_27.pdb
 OpenBabel01292518153D

 58 62  0  0  1  0  0  0  0  0999 V2000
   -7.0810   -2.5370  -28.8790 C   0  0  0  0  0  0  0  0  0  0  0  0
   -6.6710   -1.8770  -27.6290 N   0  3  0  0  0  0  0  0  0  0  0  0
   -5.7070   -2.7190  -26.8710 C   0  0  0  0  0  0  0  0  0  0  0  0
   -6.4880   -3.8240  -26.1520 C   0  0  0  0  0  0  0  0  0  0  0  0
   -7.5310   -3.1980  -25.3430 N   0  0  0  0  0  0  0  0  0  0  0  0
   -7.0640   -2.4200  -24.2060 C   0  0  0  0  0  0  0  0  0  0  0  0
   -7.8570   -2.7050  -22.9160 C   0  0  2  0  0  0  0  0  0  0  0  0
   -7.4990   -1.5600  -21.9700 C   0  0  0  0  0  0  0  0  0  0  0  0
   -7.7960   -0.3880  -22.1030 O   0  0  0  0  0  0  0  0  0  0  0  0
   -6.7240   -2.0580  -20.9520 N   0  0  0  0  0  0  0  0  0  0  0  0
   -6.1420   -1.2040  -19.9960 C   0  0  0  0  0  0  0  0  0  0  0  0
   -6.5270   -1.3110  -18.6880 C   0  0  0  0  0  0  0  0  0  0  0  0
   -6.0430   -0.5440  -17.6810 N   0  0  0  0  0  0  0  0  0  0  0  0
   -5.1300    0.3420  -18.0060 C   0  0  0  0  0  0  0  0  0  0  0  0
   -4.6310    0.5390  -19.3250 C   0  0  0  0  0  0  0  0  0  0  0  0
   -3.6390    1.5100  -19.6100 C   0  0  0  0  0  0  0  0  0  0  0  0
   -3.1540    1.6570  -20.8780 C   0  0  0  0  0  0  0  0  0  0  0  0
   -3.6410    0.8410  -21.9270 C   0  0  0  0  0  0  0  0  0  0  0  0
   -4.6070   -0.0950  -21.6830 C   0  0  0  0  0  0  0  0  0  0  0  0
   -5.1380   -0.2640  -20.3700 C   0  0  0  0  0  0  0  0  0  0  0  0
   -4.9820   -0.7040  -22.5040 H   0  0  0  0  0  0  0  0  0  0  0  0
   -3.2400    0.9650  -22.9290 H   0  0  0  0  0  0  0  0  0  0  0  0
   -2.3880    2.3960  -21.0900 H   0  0  0  0  0  0  0  0  0  0  0  0
   -3.2740    2.1280  -18.7930 H   0  0  0  0  0  0  0  0  0  0  0  0
   -4.7330    0.9620  -17.2010 H   0  0  0  0  0  0  0  0  0  0  0  0
   -7.2880   -2.0430  -18.4240 H   0  0  0  0  0  0  0  0  0  0  0  0
   -6.3680   -3.4540  -21.0980 C   0  0  0  0  0  0  0  0  0  0  0  0
   -7.4210   -3.9690  -22.0830 C   0  0  2  0  0  0  0  0  0  0  0  0
   -6.9700   -5.2070  -22.8440 C   0  0  0  0  0  0  0  0  0  0  0  0
   -6.0350   -5.0110  -23.3800 H   0  0  0  0  0  0  0  0  0  0  0  0
   -6.7920   -6.0340  -22.1450 H   0  0  0  0  0  0  0  0  0  0  0  0
   -7.7280   -5.5220  -23.5660 H   0  0  0  0  0  0  0  0  0  0  0  0
   -8.3090   -4.2320  -21.4970 H   0  0  0  0  0  0  0  0  0  0  0  0
   -5.3470   -3.5760  -21.4960 H   0  0  0  0  0  0  0  0  0  0  0  0
   -6.4000   -3.9600  -20.1300 H   0  0  0  0  0  0  0  0  0  0  0  0
   -9.3350   -2.7180  -23.2330 C   0  0  0  0  0  0  0  0  0  0  0  0
  -10.2410   -2.4160  -22.2090 C   0  0  0  0  0  0  0  0  0  0  0  0
  -11.5860   -2.6500  -22.4140 C   0  0  0  0  0  0  0  0  0  0  0  0
  -12.4860   -2.4260  -21.4460 F   0  0  0  0  0  0  0  0  0  0  0  0
  -12.0670   -3.1550  -23.6130 C   0  0  0  0  0  0  0  0  0  0  0  0
  -11.1830   -3.3980  -24.6500 C   0  0  0  0  0  0  0  0  0  0  0  0
   -9.8130   -3.1610  -24.4730 C   0  0  0  0  0  0  0  0  0  0  0  0
   -8.8560   -3.4620  -25.5900 C   0  0  0  0  0  0  0  0  0  0  0  0
   -9.2470   -3.9040  -26.6640 O   0  0  0  0  0  0  0  0  0  0  0  0
  -11.5260   -3.7920  -25.6060 H   0  0  0  0  0  0  0  0  0  0  0  0
  -13.1320   -3.3620  -23.6420 H   0  0  0  0  0  0  0  0  0  0  0  0
   -9.9060   -2.0190  -21.2580 H   0  0  0  0  0  0  0  0  0  0  0  0
   -5.9970   -2.6170  -24.0360 H   0  0  0  0  0  0  0  0  0  0  0  0
   -7.1380   -1.3370  -24.3970 H   0  0  0  0  0  0  0  0  0  0  0  0
   -6.9680   -4.5100  -26.8540 H   0  0  0  0  0  0  0  0  0  0  0  0
   -5.8270   -4.4170  -25.5070 H   0  0  0  0  0  0  0  0  0  0  0  0
   -4.9610   -3.1230  -27.5550 H   0  0  0  0  0  0  0  0  0  0  0  0
   -5.1960   -2.0880  -26.1480 H   0  0  0  0  0  0  0  0  0  0  0  0
   -7.5060   -1.7660  -27.0170 H   0  0  0  0  0  0  0  0  0  0  0  0
   -6.2860   -0.9390  -27.8260 H   0  0  0  0  0  0  0  0  0  0  0  0
   -7.6760   -3.4250  -28.6600 H   0  0  0  0  0  0  0  0  0  0  0  0
   -6.1980   -2.8640  -29.4360 H   0  0  0  0  0  0  0  0  0  0  0  0
   -7.6650   -1.8660  -29.5030 H   0  0  0  0  0  0  0  0  0  0  0  0
  1  2  1  0  0  0  0
  1 56  1  0  0  0  0
  1 57  1  0  0  0  0
  1 58  1  0  0  0  0
  2  3  1  0  0  0  0
  2 54  1  0  0  0  0
  2 55  1  0  0  0  0
  3  4  1  0  0  0  0
  3 52  1  0  0  0  0
  3 53  1  0  0  0  0
  4  5  1  0  0  0  0
  4 50  1  0  0  0  0
  4 51  1  0  0  0  0
  5  6  1  0  0  0  0
  5 43  1  0  0  0  0
  6  7  1  0  0  0  0
  6 48  1  0  0  0  0
  6 49  1  0  0  0  0
  7  8  1  1  0  0  0
  7 28  1  0  0  0  0
  7 36  1  0  0  0  0
  8  9  2  0  0  0  0
  8 10  1  0  0  0  0
 10 11  1  0  0  0  0
 10 27  1  0  0  0  0
 11 12  2  0  0  0  0
 11 20  1  0  0  0  0
 12 13  1  0  0  0  0
 12 26  1  0  0  0  0
 13 14  2  0  0  0  0
 14 15  1  0  0  0  0
 14 25  1  0  0  0  0
 15 16  2  0  0  0  0
 15 20  1  0  0  0  0
 16 17  1  0  0  0  0
 16 24  1  0  0  0  0
 17 18  2  0  0  0  0
 17 23  1  0  0  0  0
 18 19  1  0  0  0  0
 18 22  1  0  0  0  0
 19 20  2  0  0  0  0
 19 21  1  0  0  0  0
 27 28  1  0  0  0  0
 27 34  1  0  0  0  0
 27 35  1  0  0  0  0
 28 29  1  0  0  0  0
 28 33  1  1  0  0  0
 29 30  1  0  0  0  0
 29 31  1  0  0  0  0
 29 32  1  0  0  0  0
 36 37  2  0  0  0  0
 36 42  1  0  0  0  0
 37 38  1  0  0  0  0
 37 47  1  0  0  0  0
 38 39  1  0  0  0  0
 38 40  2  0  0  0  0
 40 41  1  0  0  0  0
 40 46  1  0  0  0  0
 41 42  2  0  0  0  0
 41 45  1  0  0  0  0
 42 43  1  0  0  0  0
 43 44  2  0  0  0  0
M  CHG  1   2   1
M  END
>  <MODEL>
       1

$$$$
best_conformers_27.pdb
 OpenBabel01292518153D

 58 62  0  0  1  0  0  0  0  0999 V2000
   -8.8130    2.7110  -25.3380 C   0  0  0  0  0  0  0  0  0  0  0  0
   -8.2950    1.8310  -24.2580 N   0  3  0  0  0  0  0  0  0  0  0  0
   -7.0460    1.0920  -24.6200 C   0  0  0  0  0  0  0  0  0  0  0  0
   -7.2930   -0.1170  -25.5320 C   0  0  0  0  0  0  0  0  0  0  0  0
   -8.0610   -1.1780  -24.8930 N   0  0  0  0  0  0  0  0  0  0  0  0
   -7.3870   -2.2930  -24.2550 C   0  0  0  0  0  0  0  0  0  0  0  0
   -8.0270   -2.6720  -22.8930 C   0  0  2  0  0  0  0  0  0  0  0  0
   -7.7120   -1.5630  -21.8600 C   0  0  0  0  0  0  0  0  0  0  0  0
   -8.1790   -0.4410  -21.8350 O   0  0  0  0  0  0  0  0  0  0  0  0
   -6.7910   -2.0420  -20.9580 N   0  0  0  0  0  0  0  0  0  0  0  0
   -6.1730   -1.1920  -19.9990 C   0  0  0  0  0  0  0  0  0  0  0  0
   -6.5290   -1.2890  -18.6790 C   0  0  0  0  0  0  0  0  0  0  0  0
   -6.0160   -0.5270  -17.6810 N   0  0  0  0  0  0  0  0  0  0  0  0
   -5.1010    0.3570  -18.0100 C   0  0  0  0  0  0  0  0  0  0  0  0
   -4.6150    0.5470  -19.3370 C   0  0  0  0  0  0  0  0  0  0  0  0
   -3.6160    1.5130  -19.6420 C   0  0  0  0  0  0  0  0  0  0  0  0
   -3.1630    1.6610  -20.9260 C   0  0  0  0  0  0  0  0  0  0  0  0
   -3.6780    0.8490  -21.9610 C   0  0  0  0  0  0  0  0  0  0  0  0
   -4.6440   -0.0920  -21.6890 C   0  0  0  0  0  0  0  0  0  0  0  0
   -5.1540   -0.2540  -20.3680 C   0  0  0  0  0  0  0  0  0  0  0  0
   -5.0280   -0.7160  -22.4890 H   0  0  0  0  0  0  0  0  0  0  0  0
   -3.3170    0.9770  -22.9760 H   0  0  0  0  0  0  0  0  0  0  0  0
   -2.4100    2.4090  -21.1570 H   0  0  0  0  0  0  0  0  0  0  0  0
   -3.2310    2.1330  -18.8380 H   0  0  0  0  0  0  0  0  0  0  0  0
   -4.7000    0.9740  -17.2060 H   0  0  0  0  0  0  0  0  0  0  0  0
   -7.2830   -2.0120  -18.3740 H   0  0  0  0  0  0  0  0  0  0  0  0
   -6.3100   -3.3770  -21.2620 C   0  0  0  0  0  0  0  0  0  0  0  0
   -7.3400   -3.9250  -22.2740 C   0  0  2  0  0  0  0  0  0  0  0  0
   -6.7160   -4.9180  -23.2620 C   0  0  0  0  0  0  0  0  0  0  0  0
   -6.3170   -5.7950  -22.7390 H   0  0  0  0  0  0  0  0  0  0  0  0
   -5.8860   -4.4610  -23.8160 H   0  0  0  0  0  0  0  0  0  0  0  0
   -7.4480   -5.2710  -23.9990 H   0  0  0  0  0  0  0  0  0  0  0  0
   -8.1210   -4.4530  -21.7220 H   0  0  0  0  0  0  0  0  0  0  0  0
   -6.2510   -3.9780  -20.3480 H   0  0  0  0  0  0  0  0  0  0  0  0
   -5.3020   -3.3520  -21.7090 H   0  0  0  0  0  0  0  0  0  0  0  0
   -9.5360   -2.7790  -23.0420 C   0  0  0  0  0  0  0  0  0  0  0  0
  -10.3320   -3.3550  -22.0370 C   0  0  0  0  0  0  0  0  0  0  0  0
  -11.7050   -3.3180  -22.1690 C   0  0  0  0  0  0  0  0  0  0  0  0
  -12.5100   -3.6810  -21.1560 F   0  0  0  0  0  0  0  0  0  0  0  0
  -12.3240   -2.8480  -23.3160 C   0  0  0  0  0  0  0  0  0  0  0  0
  -11.5570   -2.1870  -24.2520 C   0  0  0  0  0  0  0  0  0  0  0  0
  -10.1770   -2.0750  -24.0670 C   0  0  0  0  0  0  0  0  0  0  0  0
   -9.4090   -1.0380  -24.8270 C   0  0  0  0  0  0  0  0  0  0  0  0
   -9.9790   -0.0200  -25.2400 O   0  0  0  0  0  0  0  0  0  0  0  0
  -12.0170   -1.6770  -25.0910 H   0  0  0  0  0  0  0  0  0  0  0  0
  -13.4000   -2.9280  -23.3780 H   0  0  0  0  0  0  0  0  0  0  0  0
   -9.9150   -3.7560  -21.1230 H   0  0  0  0  0  0  0  0  0  0  0  0
   -7.4080   -3.1710  -24.9080 H   0  0  0  0  0  0  0  0  0  0  0  0
   -6.3370   -2.0310  -24.0900 H   0  0  0  0  0  0  0  0  0  0  0  0
   -7.8670    0.1760  -26.4150 H   0  0  0  0  0  0  0  0  0  0  0  0
   -6.3360   -0.5280  -25.8720 H   0  0  0  0  0  0  0  0  0  0  0  0
   -6.3600    1.7830  -25.1200 H   0  0  0  0  0  0  0  0  0  0  0  0
   -6.5890    0.7600  -23.6870 H   0  0  0  0  0  0  0  0  0  0  0  0
   -9.0360    1.1550  -24.0040 H   0  0  0  0  0  0  0  0  0  0  0  0
   -8.1160    2.4040  -23.4090 H   0  0  0  0  0  0  0  0  0  0  0  0
   -8.0270    3.3770  -25.7060 H   0  0  0  0  0  0  0  0  0  0  0  0
   -9.6380    3.3180  -24.9610 H   0  0  0  0  0  0  0  0  0  0  0  0
   -9.1780    2.1090  -26.1700 H   0  0  0  0  0  0  0  0  0  0  0  0
  1  2  1  0  0  0  0
  1 56  1  0  0  0  0
  1 57  1  0  0  0  0
  1 58  1  0  0  0  0
  2  3  1  0  0  0  0
  2 54  1  0  0  0  0
  2 55  1  0  0  0  0
  3  4  1  0  0  0  0
  3 52  1  0  0  0  0
  3 53  1  0  0  0  0
  4  5  1  0  0  0  0
  4 50  1  0  0  0  0
  4 51  1  0  0  0  0
  5  6  1  0  0  0  0
  5 43  1  0  0  0  0
  6  7  1  0  0  0  0
  6 48  1  0  0  0  0
  6 49  1  0  0  0  0
  7  8  1  1  0  0  0
  7 28  1  0  0  0  0
  7 36  1  0  0  0  0
  8  9  2  0  0  0  0
  8 10  1  0  0  0  0
 10 11  1  0  0  0  0
 10 27  1  0  0  0  0
 11 12  2  0  0  0  0
 11 20  1  0  0  0  0
 12 13  1  0  0  0  0
 12 26  1  0  0  0  0
 13 14  2  0  0  0  0
 14 15  1  0  0  0  0
 14 25  1  0  0  0  0
 15 16  2  0  0  0  0
 15 20  1  0  0  0  0
 16 17  1  0  0  0  0
 16 24  1  0  0  0  0
 17 18  2  0  0  0  0
 17 23  1  0  0  0  0
 18 19  1  0  0  0  0
 18 22  1  0  0  0  0
 19 20  2  0  0  0  0
 19 21  1  0  0  0  0
 27 28  1  0  0  0  0
 27 34  1  0  0  0  0
 27 35  1  0  0  0  0
 28 29  1  0  0  0  0
 28 33  1  1  0  0  0
 29 30  1  0  0  0  0
 29 31  1  0  0  0  0
 29 32  1  0  0  0  0
 36 37  2  0  0  0  0
 36 42  1  0  0  0  0
 37 38  1  0  0  0  0
 37 47  1  0  0  0  0
 38 39  1  0  0  0  0
 38 40  2  0  0  0  0
 40 41  1  0  0  0  0
 40 46  1  0  0  0  0
 41 42  2  0  0  0  0
 41 45  1  0  0  0  0
 42 43  1  0  0  0  0
 43 44  2  0  0  0  0
M  CHG  1   2   1
M  END
>  <MODEL>
       2

$$$$
best_conformers_27.pdb
 OpenBabel01292518153D

 58 62  0  0  1  0  0  0  0  0999 V2000
   -8.5300    2.5710  -25.6850 C   0  0  0  0  0  0  0  0  0  0  0  0
   -7.9680    1.6370  -24.6820 N   0  3  0  0  0  0  0  0  0  0  0  0
   -7.0350    0.6340  -25.2770 C   0  0  0  0  0  0  0  0  0  0  0  0
   -7.7760   -0.5350  -25.9390 C   0  0  0  0  0  0  0  0  0  0  0  0
   -8.5000   -1.3330  -24.9570 N   0  0  0  0  0  0  0  0  0  0  0  0
   -7.8410   -2.4680  -24.3420 C   0  0  0  0  0  0  0  0  0  0  0  0
   -8.1720   -2.6090  -22.8310 C   0  0  2  0  0  0  0  0  0  0  0  0
   -7.5580   -1.3950  -22.0820 C   0  0  0  0  0  0  0  0  0  0  0  0
   -7.7860   -0.2160  -22.2920 O   0  0  0  0  0  0  0  0  0  0  0  0
   -6.6660   -1.8630  -21.1500 N   0  0  0  0  0  0  0  0  0  0  0  0
   -6.1280   -1.0800  -20.1140 C   0  0  0  0  0  0  0  0  0  0  0  0
   -6.5200   -1.2600  -18.8130 C   0  0  0  0  0  0  0  0  0  0  0  0
   -6.0410   -0.5430  -17.7700 N   0  0  0  0  0  0  0  0  0  0  0  0
   -5.1190    0.3570  -18.0380 C   0  0  0  0  0  0  0  0  0  0  0  0
   -4.5920    0.5970  -19.3450 C   0  0  0  0  0  0  0  0  0  0  0  0
   -3.5850    1.5620  -19.6210 C   0  0  0  0  0  0  0  0  0  0  0  0
   -3.0970    1.7160  -20.8920 C   0  0  0  0  0  0  0  0  0  0  0  0
   -3.5670    0.9130  -21.9540 C   0  0  0  0  0  0  0  0  0  0  0  0
   -4.5430   -0.0190  -21.7210 C   0  0  0  0  0  0  0  0  0  0  0  0
   -5.0920   -0.1640  -20.4180 C   0  0  0  0  0  0  0  0  0  0  0  0
   -4.9220   -0.6420  -22.5270 H   0  0  0  0  0  0  0  0  0  0  0  0
   -3.1630    1.0390  -22.9530 H   0  0  0  0  0  0  0  0  0  0  0  0
   -2.3330    2.4610  -21.0970 H   0  0  0  0  0  0  0  0  0  0  0  0
   -3.2160    2.1780  -18.8080 H   0  0  0  0  0  0  0  0  0  0  0  0
   -4.7440    0.9400  -17.1980 H   0  0  0  0  0  0  0  0  0  0  0  0
   -7.2750   -2.0100  -18.5680 H   0  0  0  0  0  0  0  0  0  0  0  0
   -6.7040   -3.2850  -20.9610 C   0  0  0  0  0  0  0  0  0  0  0  0
   -7.4470   -3.8380  -22.1880 C   0  0  2  0  0  0  0  0  0  0  0  0
   -6.4410   -4.5800  -23.0810 C   0  0  0  0  0  0  0  0  0  0  0  0
   -6.0290   -5.4390  -22.5420 H   0  0  0  0  0  0  0  0  0  0  0  0
   -6.8990   -4.9480  -24.0020 H   0  0  0  0  0  0  0  0  0  0  0  0
   -5.5970   -3.9350  -23.3480 H   0  0  0  0  0  0  0  0  0  0  0  0
   -8.1900   -4.5840  -21.8960 H   0  0  0  0  0  0  0  0  0  0  0  0
   -7.2150   -3.4570  -20.0290 H   0  0  0  0  0  0  0  0  0  0  0  0
   -5.6890   -3.6850  -20.8420 H   0  0  0  0  0  0  0  0  0  0  0  0
   -9.7010   -2.5960  -22.7000 C   0  0  0  0  0  0  0  0  0  0  0  0
  -10.4350   -3.2750  -21.7190 C   0  0  0  0  0  0  0  0  0  0  0  0
  -11.8150   -3.1320  -21.7040 C   0  0  0  0  0  0  0  0  0  0  0  0
  -12.5550   -3.7390  -20.7630 F   0  0  0  0  0  0  0  0  0  0  0  0
  -12.5290   -2.3660  -22.6170 C   0  0  0  0  0  0  0  0  0  0  0  0
  -11.8110   -1.6550  -23.5480 C   0  0  0  0  0  0  0  0  0  0  0  0
  -10.4230   -1.7580  -23.5620 C   0  0  0  0  0  0  0  0  0  0  0  0
   -9.7020   -0.9010  -24.5230 C   0  0  0  0  0  0  0  0  0  0  0  0
  -10.1880    0.1830  -24.8700 O   0  0  0  0  0  0  0  0  0  0  0  0
  -12.3020   -1.0170  -24.2750 H   0  0  0  0  0  0  0  0  0  0  0  0
  -13.6100   -2.3300  -22.5600 H   0  0  0  0  0  0  0  0  0  0  0  0
   -9.9480   -3.8750  -20.9560 H   0  0  0  0  0  0  0  0  0  0  0  0
   -8.1290   -3.3920  -24.8550 H   0  0  0  0  0  0  0  0  0  0  0  0
   -6.7660   -2.3400  -24.4730 H   0  0  0  0  0  0  0  0  0  0  0  0
   -7.0730   -1.1870  -26.4730 H   0  0  0  0  0  0  0  0  0  0  0  0
   -8.5010   -0.1680  -26.6730 H   0  0  0  0  0  0  0  0  0  0  0  0
   -6.4090    0.2470  -24.4690 H   0  0  0  0  0  0  0  0  0  0  0  0
   -6.3930    1.1330  -26.0120 H   0  0  0  0  0  0  0  0  0  0  0  0
   -7.5020    2.1420  -23.9050 H   0  0  0  0  0  0  0  0  0  0  0  0
   -8.7760    1.1590  -24.2620 H   0  0  0  0  0  0  0  0  0  0  0  0
   -9.0650    3.3860  -25.1930 H   0  0  0  0  0  0  0  0  0  0  0  0
   -9.2350    2.0400  -26.3300 H   0  0  0  0  0  0  0  0  0  0  0  0
   -7.7350    2.9840  -26.3100 H   0  0  0  0  0  0  0  0  0  0  0  0
  1  2  1  0  0  0  0
  1 56  1  0  0  0  0
  1 57  1  0  0  0  0
  1 58  1  0  0  0  0
  2  3  1  0  0  0  0
  2 54  1  0  0  0  0
  2 55  1  0  0  0  0
  3  4  1  0  0  0  0
  3 52  1  0  0  0  0
  3 53  1  0  0  0  0
  4  5  1  0  0  0  0
  4 50  1  0  0  0  0
  4 51  1  0  0  0  0
  5  6  1  0  0  0  0
  5 43  1  0  0  0  0
  6  7  1  0  0  0  0
  6 48  1  0  0  0  0
  6 49  1  0  0  0  0
  7  8  1  1  0  0  0
  7 28  1  0  0  0  0
  7 36  1  0  0  0  0
  8  9  2  0  0  0  0
  8 10  1  0  0  0  0
 10 11  1  0  0  0  0
 10 27  1  0  0  0  0
 11 12  2  0  0  0  0
 11 20  1  0  0  0  0
 12 13  1  0  0  0  0
 12 26  1  0  0  0  0
 13 14  2  0  0  0  0
 14 15  1  0  0  0  0
 14 25  1  0  0  0  0
 15 16  2  0  0  0  0
 15 20  1  0  0  0  0
 16 17  1  0  0  0  0
 16 24  1  0  0  0  0
 17 18  2  0  0  0  0
 17 23  1  0  0  0  0
 18 19  1  0  0  0  0
 18 22  1  0  0  0  0
 19 20  2  0  0  0  0
 19 21  1  0  0  0  0
 27 28  1  0  0  0  0
 27 34  1  0  0  0  0
 27 35  1  0  0  0  0
 28 29  1  0  0  0  0
 28 33  1  1  0  0  0
 29 30  1  0  0  0  0
 29 31  1  0  0  0  0
 29 32  1  0  0  0  0
 36 37  2  0  0  0  0
 36 42  1  0  0  0  0
 37 38  1  0  0  0  0
 37 47  1  0  0  0  0
 38 39  1  0  0  0  0
 38 40  2  0  0  0  0
 40 41  1  0  0  0  0
 40 46  1  0  0  0  0
 41 42  2  0  0  0  0
 41 45  1  0  0  0  0
 42 43  1  0  0  0  0
 43 44  2  0  0  0  0
M  CHG  1   2   1
M  END
>  <MODEL>
       3

$$$$
