best_conformers_73.pdb
 OpenBabel01292518153D

 50 53  0  0  1  0  0  0  0  0999 V2000
   -8.0970   -0.2110  -21.7080 O   0  0  0  0  0  0  0  0  0  0  0  0
   -7.8730   -1.3960  -21.8760 C   0  0  0  0  0  0  0  0  0  0  0  0
   -6.7880   -2.1130  -21.0370 C   0  0  0  0  0  0  0  0  0  0  0  0
   -6.1410   -1.2150  -20.0060 C   0  0  0  0  0  0  0  0  0  0  0  0
   -6.5130   -1.2760  -18.6890 C   0  0  0  0  0  0  0  0  0  0  0  0
   -6.0210   -0.5080  -17.6770 N   0  0  0  0  0  0  0  0  0  0  0  0
   -5.0970    0.3680  -18.0000 C   0  0  0  0  0  0  0  0  0  0  0  0
   -4.6110    0.5530  -19.3230 C   0  0  0  0  0  0  0  0  0  0  0  0
   -3.6170    1.5190  -19.6290 C   0  0  0  0  0  0  0  0  0  0  0  0
   -3.1740    1.6870  -20.9150 C   0  0  0  0  0  0  0  0  0  0  0  0
   -3.7100    0.8910  -21.9520 C   0  0  0  0  0  0  0  0  0  0  0  0
   -4.6710   -0.0530  -21.6820 C   0  0  0  0  0  0  0  0  0  0  0  0
   -5.1490   -0.2520  -20.3590 C   0  0  0  0  0  0  0  0  0  0  0  0
   -5.0830   -0.6480  -22.4930 H   0  0  0  0  0  0  0  0  0  0  0  0
   -3.3610    1.0360  -22.9690 H   0  0  0  0  0  0  0  0  0  0  0  0
   -2.4190    2.4350  -21.1490 H   0  0  0  0  0  0  0  0  0  0  0  0
   -3.2200    2.1340  -18.8250 H   0  0  0  0  0  0  0  0  0  0  0  0
   -4.6910    0.9870  -17.1970 H   0  0  0  0  0  0  0  0  0  0  0  0
   -7.2690   -1.9870  -18.3670 H   0  0  0  0  0  0  0  0  0  0  0  0
   -7.2700   -2.9540  -20.5220 H   0  0  0  0  0  0  0  0  0  0  0  0
   -6.0210   -2.5560  -21.6870 H   0  0  0  0  0  0  0  0  0  0  0  0
   -8.6280   -2.1490  -22.7620 N   0  0  0  0  0  0  0  0  0  0  0  0
   -9.8610   -1.5090  -23.2400 C   0  0  0  0  0  0  0  0  0  0  0  0
  -10.9100   -2.5400  -23.6220 C   0  0  0  0  0  0  0  0  0  0  0  0
  -10.3640   -3.4860  -24.6770 C   0  0  0  0  0  0  0  0  0  0  0  0
   -9.1360   -4.1920  -24.1150 C   0  0  0  0  0  0  0  0  0  0  0  0
   -8.0510   -3.2820  -23.5030 C   0  0  1  0  0  0  0  0  0  0  0  0
   -6.9550   -2.8770  -24.5310 C   0  0  0  0  0  0  0  0  0  0  0  0
   -7.3740   -1.9260  -25.6220 C   0  0  0  0  0  0  0  0  0  0  0  0
   -7.8290   -2.3930  -26.8570 C   0  0  0  0  0  0  0  0  0  0  0  0
   -8.2390   -1.5090  -27.8520 C   0  0  0  0  0  0  0  0  0  0  0  0
   -8.1890   -0.1360  -27.6280 C   0  0  0  0  0  0  0  0  0  0  0  0
   -7.7340    0.3420  -26.4030 C   0  0  0  0  0  0  0  0  0  0  0  0
   -7.3250   -0.5460  -25.4130 C   0  0  0  0  0  0  0  0  0  0  0  0
   -6.9800   -0.1620  -24.4560 H   0  0  0  0  0  0  0  0  0  0  0  0
   -7.6840    1.4100  -26.2180 H   0  0  0  0  0  0  0  0  0  0  0  0
   -8.5000    0.5560  -28.4050 H   0  0  0  0  0  0  0  0  0  0  0  0
   -8.5770   -1.8920  -28.8100 H   0  0  0  0  0  0  0  0  0  0  0  0
   -7.8710   -3.4650  -27.0440 H   0  0  0  0  0  0  0  0  0  0  0  0
   -6.1100   -2.4440  -23.9840 H   0  0  0  0  0  0  0  0  0  0  0  0
   -6.5670   -3.7980  -24.9840 H   0  0  0  0  0  0  0  0  0  0  0  0
   -7.5370   -3.8880  -22.7500 H   0  0  0  0  0  0  0  0  0  0  0  0
   -8.6780   -4.8190  -24.8880 H   0  0  0  0  0  0  0  0  0  0  0  0
   -9.4690   -4.8840  -23.3370 H   0  0  0  0  0  0  0  0  0  0  0  0
  -11.1230   -4.2240  -24.9660 H   0  0  0  0  0  0  0  0  0  0  0  0
  -10.1100   -2.9260  -25.5830 H   0  0  0  0  0  0  0  0  0  0  0  0
  -11.2020   -3.1040  -22.7310 H   0  0  0  0  0  0  0  0  0  0  0  0
  -11.8150   -2.0390  -23.9800 H   0  0  0  0  0  0  0  0  0  0  0  0
  -10.2270   -0.8710  -22.4370 H   0  0  0  0  0  0  0  0  0  0  0  0
   -9.6660   -0.8420  -24.0900 H   0  0  0  0  0  0  0  0  0  0  0  0
  1  2  2  0  0  0  0
  2  3  1  0  0  0  0
  2 22  1  0  0  0  0
  3  4  1  0  0  0  0
  3 20  1  0  0  0  0
  3 21  1  0  0  0  0
  4  5  2  0  0  0  0
  4 13  1  0  0  0  0
  5  6  1  0  0  0  0
  5 19  1  0  0  0  0
  6  7  2  0  0  0  0
  7  8  1  0  0  0  0
  7 18  1  0  0  0  0
  8  9  2  0  0  0  0
  8 13  1  0  0  0  0
  9 10  1  0  0  0  0
  9 17  1  0  0  0  0
 10 11  2  0  0  0  0
 10 16  1  0  0  0  0
 11 12  1  0  0  0  0
 11 15  1  0  0  0  0
 12 13  2  0  0  0  0
 12 14  1  0  0  0  0
 22 23  1  0  0  0  0
 22 27  1  0  0  0  0
 23 24  1  0  0  0  0
 23 49  1  0  0  0  0
 23 50  1  0  0  0  0
 24 25  1  0  0  0  0
 24 47  1  0  0  0  0
 24 48  1  0  0  0  0
 25 26  1  0  0  0  0
 25 45  1  0  0  0  0
 25 46  1  0  0  0  0
 26 27  1  0  0  0  0
 26 43  1  0  0  0  0
 26 44  1  0  0  0  0
 27 28  1  0  0  0  0
 27 42  1  1  0  0  0
 28 29  1  0  0  0  0
 28 40  1  0  0  0  0
 28 41  1  0  0  0  0
 29 30  2  0  0  0  0
 29 34  1  0  0  0  0
 30 31  1  0  0  0  0
 30 39  1  0  0  0  0
 31 32  2  0  0  0  0
 31 38  1  0  0  0  0
 32 33  1  0  0  0  0
 32 37  1  0  0  0  0
 33 34  2  0  0  0  0
 33 36  1  0  0  0  0
 34 35  1  0  0  0  0
M  END
>  <MODEL>
       1

$$$$
best_conformers_73.pdb
 OpenBabel01292518153D

 50 53  0  0  1  0  0  0  0  0999 V2000
   -8.0970   -0.2100  -21.7060 O   0  0  0  0  0  0  0  0  0  0  0  0
   -7.8730   -1.3950  -21.8760 C   0  0  0  0  0  0  0  0  0  0  0  0
   -6.7880   -2.1120  -21.0370 C   0  0  0  0  0  0  0  0  0  0  0  0
   -6.1410   -1.2150  -20.0060 C   0  0  0  0  0  0  0  0  0  0  0  0
   -6.5130   -1.2760  -18.6890 C   0  0  0  0  0  0  0  0  0  0  0  0
   -6.0210   -0.5080  -17.6770 N   0  0  0  0  0  0  0  0  0  0  0  0
   -5.0970    0.3680  -18.0000 C   0  0  0  0  0  0  0  0  0  0  0  0
   -4.6110    0.5530  -19.3230 C   0  0  0  0  0  0  0  0  0  0  0  0
   -3.6170    1.5190  -19.6290 C   0  0  0  0  0  0  0  0  0  0  0  0
   -3.1740    1.6870  -20.9150 C   0  0  0  0  0  0  0  0  0  0  0  0
   -3.7100    0.8910  -21.9520 C   0  0  0  0  0  0  0  0  0  0  0  0
   -4.6710   -0.0530  -21.6820 C   0  0  0  0  0  0  0  0  0  0  0  0
   -5.1490   -0.2520  -20.3590 C   0  0  0  0  0  0  0  0  0  0  0  0
   -5.0830   -0.6480  -22.4930 H   0  0  0  0  0  0  0  0  0  0  0  0
   -3.3610    1.0360  -22.9690 H   0  0  0  0  0  0  0  0  0  0  0  0
   -2.4200    2.4350  -21.1490 H   0  0  0  0  0  0  0  0  0  0  0  0
   -3.2200    2.1340  -18.8250 H   0  0  0  0  0  0  0  0  0  0  0  0
   -4.6910    0.9870  -17.1970 H   0  0  0  0  0  0  0  0  0  0  0  0
   -7.2690   -1.9870  -18.3670 H   0  0  0  0  0  0  0  0  0  0  0  0
   -7.2710   -2.9540  -20.5220 H   0  0  0  0  0  0  0  0  0  0  0  0
   -6.0220   -2.5560  -21.6870 H   0  0  0  0  0  0  0  0  0  0  0  0
   -8.6280   -2.1470  -22.7630 N   0  0  0  0  0  0  0  0  0  0  0  0
   -9.8610   -1.5060  -23.2410 C   0  0  0  0  0  0  0  0  0  0  0  0
  -10.9100   -2.5360  -23.6240 C   0  0  0  0  0  0  0  0  0  0  0  0
  -10.3640   -3.4810  -24.6790 C   0  0  0  0  0  0  0  0  0  0  0  0
   -9.1350   -4.1880  -24.1180 C   0  0  0  0  0  0  0  0  0  0  0  0
   -8.0510   -3.2790  -23.5050 C   0  0  1  0  0  0  0  0  0  0  0  0
   -6.9550   -2.8730  -24.5320 C   0  0  0  0  0  0  0  0  0  0  0  0
   -7.3730   -1.9200  -25.6220 C   0  0  0  0  0  0  0  0  0  0  0  0
   -7.3230   -0.5410  -25.4110 C   0  0  0  0  0  0  0  0  0  0  0  0
   -7.7310    0.3490  -26.3990 C   0  0  0  0  0  0  0  0  0  0  0  0
   -8.1870   -0.1270  -27.6250 C   0  0  0  0  0  0  0  0  0  0  0  0
   -8.2380   -1.4990  -27.8510 C   0  0  0  0  0  0  0  0  0  0  0  0
   -7.8280   -2.3850  -26.8580 C   0  0  0  0  0  0  0  0  0  0  0  0
   -7.8710   -3.4560  -27.0460 H   0  0  0  0  0  0  0  0  0  0  0  0
   -8.5750   -1.8800  -28.8100 H   0  0  0  0  0  0  0  0  0  0  0  0
   -8.4970    0.5670  -28.4000 H   0  0  0  0  0  0  0  0  0  0  0  0
   -7.6800    1.4170  -26.2130 H   0  0  0  0  0  0  0  0  0  0  0  0
   -6.9780   -0.1580  -24.4520 H   0  0  0  0  0  0  0  0  0  0  0  0
   -6.5670   -3.7930  -24.9870 H   0  0  0  0  0  0  0  0  0  0  0  0
   -6.1090   -2.4410  -23.9850 H   0  0  0  0  0  0  0  0  0  0  0  0
   -7.5370   -3.8860  -22.7520 H   0  0  0  0  0  0  0  0  0  0  0  0
   -8.6770   -4.8140  -24.8910 H   0  0  0  0  0  0  0  0  0  0  0  0
   -9.4690   -4.8810  -23.3410 H   0  0  0  0  0  0  0  0  0  0  0  0
  -11.1220   -4.2190  -24.9700 H   0  0  0  0  0  0  0  0  0  0  0  0
  -10.1090   -2.9200  -25.5850 H   0  0  0  0  0  0  0  0  0  0  0  0
  -11.2020   -3.1020  -22.7340 H   0  0  0  0  0  0  0  0  0  0  0  0
  -11.8150   -2.0350  -23.9820 H   0  0  0  0  0  0  0  0  0  0  0  0
   -9.6650   -0.8380  -24.0900 H   0  0  0  0  0  0  0  0  0  0  0  0
  -10.2270   -0.8690  -22.4370 H   0  0  0  0  0  0  0  0  0  0  0  0
  1  2  2  0  0  0  0
  2  3  1  0  0  0  0
  2 22  1  0  0  0  0
  3  4  1  0  0  0  0
  3 20  1  0  0  0  0
  3 21  1  0  0  0  0
  4  5  2  0  0  0  0
  4 13  1  0  0  0  0
  5  6  1  0  0  0  0
  5 19  1  0  0  0  0
  6  7  2  0  0  0  0
  7  8  1  0  0  0  0
  7 18  1  0  0  0  0
  8  9  2  0  0  0  0
  8 13  1  0  0  0  0
  9 10  1  0  0  0  0
  9 17  1  0  0  0  0
 10 11  2  0  0  0  0
 10 16  1  0  0  0  0
 11 12  1  0  0  0  0
 11 15  1  0  0  0  0
 12 13  2  0  0  0  0
 12 14  1  0  0  0  0
 22 23  1  0  0  0  0
 22 27  1  0  0  0  0
 23 24  1  0  0  0  0
 23 49  1  0  0  0  0
 23 50  1  0  0  0  0
 24 25  1  0  0  0  0
 24 47  1  0  0  0  0
 24 48  1  0  0  0  0
 25 26  1  0  0  0  0
 25 45  1  0  0  0  0
 25 46  1  0  0  0  0
 26 27  1  0  0  0  0
 26 43  1  0  0  0  0
 26 44  1  0  0  0  0
 27 28  1  0  0  0  0
 27 42  1  1  0  0  0
 28 29  1  0  0  0  0
 28 40  1  0  0  0  0
 28 41  1  0  0  0  0
 29 30  2  0  0  0  0
 29 34  1  0  0  0  0
 30 31  1  0  0  0  0
 30 39  1  0  0  0  0
 31 32  2  0  0  0  0
 31 38  1  0  0  0  0
 32 33  1  0  0  0  0
 32 37  1  0  0  0  0
 33 34  2  0  0  0  0
 33 36  1  0  0  0  0
 34 35  1  0  0  0  0
M  END
>  <MODEL>
       2

$$$$
best_conformers_73.pdb
 OpenBabel01292518153D

 50 53  0  0  1  0  0  0  0  0999 V2000
   -4.7160   -3.5500  -20.8980 O   0  0  0  0  0  0  0  0  0  0  0  0
   -5.8690   -3.4880  -21.2960 C   0  0  0  0  0  0  0  0  0  0  0  0
   -6.7260   -2.2330  -21.0220 C   0  0  0  0  0  0  0  0  0  0  0  0
   -6.1220   -1.2820  -20.0130 C   0  0  0  0  0  0  0  0  0  0  0  0
   -6.5230   -1.3260  -18.7020 C   0  0  0  0  0  0  0  0  0  0  0  0
   -6.0490   -0.5480  -17.6920 N   0  0  0  0  0  0  0  0  0  0  0  0
   -5.1260    0.3290  -18.0100 C   0  0  0  0  0  0  0  0  0  0  0  0
   -4.6140    0.5030  -19.3240 C   0  0  0  0  0  0  0  0  0  0  0  0
   -3.6300    1.4830  -19.6190 C   0  0  0  0  0  0  0  0  0  0  0  0
   -3.1670    1.6400  -20.8980 C   0  0  0  0  0  0  0  0  0  0  0  0
   -3.6740    0.8270  -21.9370 C   0  0  0  0  0  0  0  0  0  0  0  0
   -4.6250   -0.1310  -21.6760 C   0  0  0  0  0  0  0  0  0  0  0  0
   -5.1220   -0.3200  -20.3590 C   0  0  0  0  0  0  0  0  0  0  0  0
   -5.0110   -0.7470  -22.4830 H   0  0  0  0  0  0  0  0  0  0  0  0
   -3.3140    0.9710  -22.9530 H   0  0  0  0  0  0  0  0  0  0  0  0
   -2.4150    2.3940  -21.1250 H   0  0  0  0  0  0  0  0  0  0  0  0
   -3.2610    2.1130  -18.8130 H   0  0  0  0  0  0  0  0  0  0  0  0
   -4.7290    0.9610  -17.2120 H   0  0  0  0  0  0  0  0  0  0  0  0
   -7.2930   -2.0330  -18.3930 H   0  0  0  0  0  0  0  0  0  0  0  0
   -7.7010   -2.5710  -20.6440 H   0  0  0  0  0  0  0  0  0  0  0  0
   -6.9270   -1.7170  -21.9730 H   0  0  0  0  0  0  0  0  0  0  0  0
   -6.4600   -4.5300  -21.9700 N   0  0  0  0  0  0  0  0  0  0  0  0
   -7.8200   -4.4760  -22.5250 C   0  0  0  0  0  0  0  0  0  0  0  0
   -7.9650   -5.4270  -23.7060 C   0  0  0  0  0  0  0  0  0  0  0  0
   -7.5800   -6.8770  -23.3430 C   0  0  0  0  0  0  0  0  0  0  0  0
   -6.6670   -6.9670  -22.1040 C   0  0  0  0  0  0  0  0  0  0  0  0
   -5.6940   -5.7910  -22.0660 C   0  0  1  0  0  0  0  0  0  0  0  0
   -4.7550   -5.8180  -23.3080 C   0  0  0  0  0  0  0  0  0  0  0  0
   -3.6450   -6.8550  -23.3110 C   0  0  0  0  0  0  0  0  0  0  0  0
   -2.4970   -6.6810  -22.5280 C   0  0  0  0  0  0  0  0  0  0  0  0
   -1.6080   -7.7290  -22.3240 C   0  0  0  0  0  0  0  0  0  0  0  0
   -1.7480   -8.9100  -23.0380 C   0  0  0  0  0  0  0  0  0  0  0  0
   -2.7630   -9.0310  -23.9740 C   0  0  0  0  0  0  0  0  0  0  0  0
   -3.7090   -8.0180  -24.0910 C   0  0  0  0  0  0  0  0  0  0  0  0
   -4.5030   -8.1650  -24.8170 H   0  0  0  0  0  0  0  0  0  0  0  0
   -2.8090   -9.9110  -24.6140 H   0  0  0  0  0  0  0  0  0  0  0  0
   -1.0400   -9.7180  -22.9060 H   0  0  0  0  0  0  0  0  0  0  0  0
   -0.8060   -7.6530  -21.5970 H   0  0  0  0  0  0  0  0  0  0  0  0
   -2.2740   -5.7250  -22.0690 H   0  0  0  0  0  0  0  0  0  0  0  0
   -5.3610   -5.9350  -24.2090 H   0  0  0  0  0  0  0  0  0  0  0  0
   -4.3500   -4.8260  -23.3990 H   0  0  0  0  0  0  0  0  0  0  0  0
   -5.0890   -5.8220  -21.1490 H   0  0  0  0  0  0  0  0  0  0  0  0
   -6.0780   -7.8930  -22.1080 H   0  0  0  0  0  0  0  0  0  0  0  0
   -7.2560   -6.9910  -21.1790 H   0  0  0  0  0  0  0  0  0  0  0  0
   -8.4770   -7.4830  -23.1920 H   0  0  0  0  0  0  0  0  0  0  0  0
   -7.0410   -7.3270  -24.1850 H   0  0  0  0  0  0  0  0  0  0  0  0
   -7.3270   -5.0660  -24.5150 H   0  0  0  0  0  0  0  0  0  0  0  0
   -8.9860   -5.3750  -24.0970 H   0  0  0  0  0  0  0  0  0  0  0  0
   -8.5790   -4.7320  -21.7740 H   0  0  0  0  0  0  0  0  0  0  0  0
   -8.0390   -3.4510  -22.8470 H   0  0  0  0  0  0  0  0  0  0  0  0
  1  2  2  0  0  0  0
  2  3  1  0  0  0  0
  2 22  1  0  0  0  0
  3  4  1  0  0  0  0
  3 20  1  0  0  0  0
  3 21  1  0  0  0  0
  4  5  2  0  0  0  0
  4 13  1  0  0  0  0
  5  6  1  0  0  0  0
  5 19  1  0  0  0  0
  6  7  2  0  0  0  0
  7  8  1  0  0  0  0
  7 18  1  0  0  0  0
  8  9  2  0  0  0  0
  8 13  1  0  0  0  0
  9 10  1  0  0  0  0
  9 17  1  0  0  0  0
 10 11  2  0  0  0  0
 10 16  1  0  0  0  0
 11 12  1  0  0  0  0
 11 15  1  0  0  0  0
 12 13  2  0  0  0  0
 12 14  1  0  0  0  0
 22 23  1  0  0  0  0
 22 27  1  0  0  0  0
 23 24  1  0  0  0  0
 23 49  1  0  0  0  0
 23 50  1  0  0  0  0
 24 25  1  0  0  0  0
 24 47  1  0  0  0  0
 24 48  1  0  0  0  0
 25 26  1  0  0  0  0
 25 45  1  0  0  0  0
 25 46  1  0  0  0  0
 26 27  1  0  0  0  0
 26 43  1  0  0  0  0
 26 44  1  0  0  0  0
 27 28  1  0  0  0  0
 27 42  1  1  0  0  0
 28 29  1  0  0  0  0
 28 40  1  0  0  0  0
 28 41  1  0  0  0  0
 29 30  2  0  0  0  0
 29 34  1  0  0  0  0
 30 31  1  0  0  0  0
 30 39  1  0  0  0  0
 31 32  2  0  0  0  0
 31 38  1  0  0  0  0
 32 33  1  0  0  0  0
 32 37  1  0  0  0  0
 33 34  2  0  0  0  0
 33 36  1  0  0  0  0
 34 35  1  0  0  0  0
M  END
>  <MODEL>
       3

$$$$
best_conformers_73.pdb
 OpenBabel01292518153D

 50 53  0  0  1  0  0  0  0  0999 V2000
   -8.4500   -0.4350  -21.4260 O   0  0  0  0  0  0  0  0  0  0  0  0
   -7.7830   -1.3260  -21.9190 C   0  0  0  0  0  0  0  0  0  0  0  0
   -6.7790   -2.1040  -21.0360 C   0  0  0  0  0  0  0  0  0  0  0  0
   -6.1340   -1.2140  -19.9970 C   0  0  0  0  0  0  0  0  0  0  0  0
   -6.5120   -1.2750  -18.6820 C   0  0  0  0  0  0  0  0  0  0  0  0
   -6.0190   -0.5060  -17.6720 N   0  0  0  0  0  0  0  0  0  0  0  0
   -5.0960    0.3680  -17.9980 C   0  0  0  0  0  0  0  0  0  0  0  0
   -4.6060    0.5530  -19.3200 C   0  0  0  0  0  0  0  0  0  0  0  0
   -3.6130    1.5190  -19.6280 C   0  0  0  0  0  0  0  0  0  0  0  0
   -3.1690    1.6820  -20.9120 C   0  0  0  0  0  0  0  0  0  0  0  0
   -3.7040    0.8840  -21.9480 C   0  0  0  0  0  0  0  0  0  0  0  0
   -4.6660   -0.0580  -21.6790 C   0  0  0  0  0  0  0  0  0  0  0  0
   -5.1420   -0.2540  -20.3550 C   0  0  0  0  0  0  0  0  0  0  0  0
   -5.0690   -0.6550  -22.4920 H   0  0  0  0  0  0  0  0  0  0  0  0
   -3.3520    1.0240  -22.9660 H   0  0  0  0  0  0  0  0  0  0  0  0
   -2.4120    2.4290  -21.1490 H   0  0  0  0  0  0  0  0  0  0  0  0
   -3.2170    2.1360  -18.8240 H   0  0  0  0  0  0  0  0  0  0  0  0
   -4.6890    0.9890  -17.1970 H   0  0  0  0  0  0  0  0  0  0  0  0
   -7.2720   -1.9880  -18.3660 H   0  0  0  0  0  0  0  0  0  0  0  0
   -6.0100   -2.5980  -21.6450 H   0  0  0  0  0  0  0  0  0  0  0  0
   -7.3400   -2.8950  -20.5220 H   0  0  0  0  0  0  0  0  0  0  0  0
   -7.8650   -1.6520  -23.2600 N   0  0  0  0  0  0  0  0  0  0  0  0
   -8.2580   -0.6180  -24.2120 C   0  0  0  0  0  0  0  0  0  0  0  0
   -9.4640   -1.0310  -25.0380 C   0  0  0  0  0  0  0  0  0  0  0  0
   -9.2320   -2.3750  -25.7200 C   0  0  0  0  0  0  0  0  0  0  0  0
   -8.8250   -3.4180  -24.6820 C   0  0  0  0  0  0  0  0  0  0  0  0
   -7.6270   -2.9820  -23.8200 C   0  0  1  0  0  0  0  0  0  0  0  0
   -6.2850   -3.0620  -24.5730 C   0  0  0  0  0  0  0  0  0  0  0  0
   -5.8590   -4.4770  -24.8850 C   0  0  0  0  0  0  0  0  0  0  0  0
   -5.3140   -5.2850  -23.8850 C   0  0  0  0  0  0  0  0  0  0  0  0
   -4.9410   -6.5970  -24.1480 C   0  0  0  0  0  0  0  0  0  0  0  0
   -5.1120   -7.1280  -25.4230 C   0  0  0  0  0  0  0  0  0  0  0  0
   -5.6580   -6.3370  -26.4290 C   0  0  0  0  0  0  0  0  0  0  0  0
   -6.0280   -5.0240  -26.1580 C   0  0  0  0  0  0  0  0  0  0  0  0
   -6.4660   -4.4130  -26.9460 H   0  0  0  0  0  0  0  0  0  0  0  0
   -5.7990   -6.7430  -27.4270 H   0  0  0  0  0  0  0  0  0  0  0  0
   -4.8190   -8.1530  -25.6320 H   0  0  0  0  0  0  0  0  0  0  0  0
   -4.5150   -7.2070  -23.3570 H   0  0  0  0  0  0  0  0  0  0  0  0
   -5.1770   -4.8770  -22.8860 H   0  0  0  0  0  0  0  0  0  0  0  0
   -6.3530   -2.4760  -25.4950 H   0  0  0  0  0  0  0  0  0  0  0  0
   -5.5180   -2.5770  -23.9560 H   0  0  0  0  0  0  0  0  0  0  0  0
   -7.5740   -3.6730  -22.9760 H   0  0  0  0  0  0  0  0  0  0  0  0
   -9.6740   -3.6120  -24.0180 H   0  0  0  0  0  0  0  0  0  0  0  0
   -8.5960   -4.3730  -25.1640 H   0  0  0  0  0  0  0  0  0  0  0  0
  -10.1350   -2.7040  -26.2480 H   0  0  0  0  0  0  0  0  0  0  0  0
   -8.4490   -2.2840  -26.4850 H   0  0  0  0  0  0  0  0  0  0  0  0
   -9.6630   -0.2380  -25.7630 H   0  0  0  0  0  0  0  0  0  0  0  0
  -10.3380   -1.0930  -24.3830 H   0  0  0  0  0  0  0  0  0  0  0  0
   -7.4250   -0.3980  -24.8960 H   0  0  0  0  0  0  0  0  0  0  0  0
   -8.4630    0.2960  -23.6550 H   0  0  0  0  0  0  0  0  0  0  0  0
  1  2  2  0  0  0  0
  2  3  1  0  0  0  0
  2 22  1  0  0  0  0
  3  4  1  0  0  0  0
  3 20  1  0  0  0  0
  3 21  1  0  0  0  0
  4  5  2  0  0  0  0
  4 13  1  0  0  0  0
  5  6  1  0  0  0  0
  5 19  1  0  0  0  0
  6  7  2  0  0  0  0
  7  8  1  0  0  0  0
  7 18  1  0  0  0  0
  8  9  2  0  0  0  0
  8 13  1  0  0  0  0
  9 10  1  0  0  0  0
  9 17  1  0  0  0  0
 10 11  2  0  0  0  0
 10 16  1  0  0  0  0
 11 12  1  0  0  0  0
 11 15  1  0  0  0  0
 12 13  2  0  0  0  0
 12 14  1  0  0  0  0
 22 23  1  0  0  0  0
 22 27  1  0  0  0  0
 23 24  1  0  0  0  0
 23 49  1  0  0  0  0
 23 50  1  0  0  0  0
 24 25  1  0  0  0  0
 24 47  1  0  0  0  0
 24 48  1  0  0  0  0
 25 26  1  0  0  0  0
 25 45  1  0  0  0  0
 25 46  1  0  0  0  0
 26 27  1  0  0  0  0
 26 43  1  0  0  0  0
 26 44  1  0  0  0  0
 27 28  1  0  0  0  0
 27 42  1  1  0  0  0
 28 29  1  0  0  0  0
 28 40  1  0  0  0  0
 28 41  1  0  0  0  0
 29 30  2  0  0  0  0
 29 34  1  0  0  0  0
 30 31  1  0  0  0  0
 30 39  1  0  0  0  0
 31 32  2  0  0  0  0
 31 38  1  0  0  0  0
 32 33  1  0  0  0  0
 32 37  1  0  0  0  0
 33 34  2  0  0  0  0
 33 36  1  0  0  0  0
 34 35  1  0  0  0  0
M  END
>  <MODEL>
       4

$$$$
best_conformers_73.pdb
 OpenBabel01292518153D

 50 53  0  0  1  0  0  0  0  0999 V2000
   -8.4460   -0.4340  -21.4310 O   0  0  0  0  0  0  0  0  0  0  0  0
   -7.7810   -1.3280  -21.9210 C   0  0  0  0  0  0  0  0  0  0  0  0
   -6.7790   -2.1040  -21.0360 C   0  0  0  0  0  0  0  0  0  0  0  0
   -6.1340   -1.2140  -19.9970 C   0  0  0  0  0  0  0  0  0  0  0  0
   -6.5120   -1.2750  -18.6830 C   0  0  0  0  0  0  0  0  0  0  0  0
   -6.0190   -0.5060  -17.6720 N   0  0  0  0  0  0  0  0  0  0  0  0
   -5.0960    0.3680  -17.9980 C   0  0  0  0  0  0  0  0  0  0  0  0
   -4.6060    0.5530  -19.3200 C   0  0  0  0  0  0  0  0  0  0  0  0
   -3.6130    1.5190  -19.6280 C   0  0  0  0  0  0  0  0  0  0  0  0
   -3.1690    1.6820  -20.9120 C   0  0  0  0  0  0  0  0  0  0  0  0
   -3.7040    0.8840  -21.9480 C   0  0  0  0  0  0  0  0  0  0  0  0
   -4.6650   -0.0580  -21.6790 C   0  0  0  0  0  0  0  0  0  0  0  0
   -5.1420   -0.2540  -20.3550 C   0  0  0  0  0  0  0  0  0  0  0  0
   -5.0690   -0.6550  -22.4920 H   0  0  0  0  0  0  0  0  0  0  0  0
   -3.3510    1.0230  -22.9660 H   0  0  0  0  0  0  0  0  0  0  0  0
   -2.4120    2.4280  -21.1490 H   0  0  0  0  0  0  0  0  0  0  0  0
   -3.2160    2.1360  -18.8240 H   0  0  0  0  0  0  0  0  0  0  0  0
   -4.6890    0.9890  -17.1970 H   0  0  0  0  0  0  0  0  0  0  0  0
   -7.2720   -1.9880  -18.3660 H   0  0  0  0  0  0  0  0  0  0  0  0
   -7.3400   -2.8950  -20.5220 H   0  0  0  0  0  0  0  0  0  0  0  0
   -6.0090   -2.6000  -21.6430 H   0  0  0  0  0  0  0  0  0  0  0  0
   -7.8630   -1.6580  -23.2620 N   0  0  0  0  0  0  0  0  0  0  0  0
   -8.2550   -0.6260  -24.2170 C   0  0  0  0  0  0  0  0  0  0  0  0
   -9.4590   -1.0420  -25.0430 C   0  0  0  0  0  0  0  0  0  0  0  0
   -9.2270   -2.3870  -25.7210 C   0  0  0  0  0  0  0  0  0  0  0  0
   -8.8220   -3.4270  -24.6800 C   0  0  0  0  0  0  0  0  0  0  0  0
   -7.6250   -2.9900  -23.8170 C   0  0  1  0  0  0  0  0  0  0  0  0
   -6.2820   -3.0720  -24.5680 C   0  0  0  0  0  0  0  0  0  0  0  0
   -5.8550   -4.4880  -24.8740 C   0  0  0  0  0  0  0  0  0  0  0  0
   -6.0220   -5.0400  -26.1440 C   0  0  0  0  0  0  0  0  0  0  0  0
   -5.6510   -6.3550  -26.4080 C   0  0  0  0  0  0  0  0  0  0  0  0
   -5.1060   -7.1410  -25.3990 C   0  0  0  0  0  0  0  0  0  0  0  0
   -4.9370   -6.6050  -24.1260 C   0  0  0  0  0  0  0  0  0  0  0  0
   -5.3110   -5.2910  -23.8690 C   0  0  0  0  0  0  0  0  0  0  0  0
   -5.1750   -4.8780  -22.8720 H   0  0  0  0  0  0  0  0  0  0  0  0
   -4.5120   -7.2110  -23.3310 H   0  0  0  0  0  0  0  0  0  0  0  0
   -4.8120   -8.1670  -25.6030 H   0  0  0  0  0  0  0  0  0  0  0  0
   -5.7910   -6.7650  -27.4050 H   0  0  0  0  0  0  0  0  0  0  0  0
   -6.4590   -4.4340  -26.9350 H   0  0  0  0  0  0  0  0  0  0  0  0
   -5.5150   -2.5840  -23.9530 H   0  0  0  0  0  0  0  0  0  0  0  0
   -6.3490   -2.4900  -25.4930 H   0  0  0  0  0  0  0  0  0  0  0  0
   -7.5730   -3.6780  -22.9720 H   0  0  0  0  0  0  0  0  0  0  0  0
   -8.5920   -4.3830  -25.1590 H   0  0  0  0  0  0  0  0  0  0  0  0
   -9.6720   -3.6200  -24.0170 H   0  0  0  0  0  0  0  0  0  0  0  0
  -10.1290   -2.7170  -26.2500 H   0  0  0  0  0  0  0  0  0  0  0  0
   -8.4430   -2.2980  -26.4850 H   0  0  0  0  0  0  0  0  0  0  0  0
   -9.6570   -0.2500  -25.7700 H   0  0  0  0  0  0  0  0  0  0  0  0
  -10.3350   -1.1010  -24.3890 H   0  0  0  0  0  0  0  0  0  0  0  0
   -7.4210   -0.4080  -24.9000 H   0  0  0  0  0  0  0  0  0  0  0  0
   -8.4610    0.2890  -23.6620 H   0  0  0  0  0  0  0  0  0  0  0  0
  1  2  2  0  0  0  0
  2  3  1  0  0  0  0
  2 22  1  0  0  0  0
  3  4  1  0  0  0  0
  3 20  1  0  0  0  0
  3 21  1  0  0  0  0
  4  5  2  0  0  0  0
  4 13  1  0  0  0  0
  5  6  1  0  0  0  0
  5 19  1  0  0  0  0
  6  7  2  0  0  0  0
  7  8  1  0  0  0  0
  7 18  1  0  0  0  0
  8  9  2  0  0  0  0
  8 13  1  0  0  0  0
  9 10  1  0  0  0  0
  9 17  1  0  0  0  0
 10 11  2  0  0  0  0
 10 16  1  0  0  0  0
 11 12  1  0  0  0  0
 11 15  1  0  0  0  0
 12 13  2  0  0  0  0
 12 14  1  0  0  0  0
 22 23  1  0  0  0  0
 22 27  1  0  0  0  0
 23 24  1  0  0  0  0
 23 49  1  0  0  0  0
 23 50  1  0  0  0  0
 24 25  1  0  0  0  0
 24 47  1  0  0  0  0
 24 48  1  0  0  0  0
 25 26  1  0  0  0  0
 25 45  1  0  0  0  0
 25 46  1  0  0  0  0
 26 27  1  0  0  0  0
 26 43  1  0  0  0  0
 26 44  1  0  0  0  0
 27 28  1  0  0  0  0
 27 42  1  1  0  0  0
 28 29  1  0  0  0  0
 28 40  1  0  0  0  0
 28 41  1  0  0  0  0
 29 30  2  0  0  0  0
 29 34  1  0  0  0  0
 30 31  1  0  0  0  0
 30 39  1  0  0  0  0
 31 32  2  0  0  0  0
 31 38  1  0  0  0  0
 32 33  1  0  0  0  0
 32 37  1  0  0  0  0
 33 34  2  0  0  0  0
 33 36  1  0  0  0  0
 34 35  1  0  0  0  0
M  END
>  <MODEL>
       5

$$$$
best_conformers_73.pdb
 OpenBabel01292518153D

 50 53  0  0  1  0  0  0  0  0999 V2000
   -8.7040   -0.6550  -21.2490 O   0  0  0  0  0  0  0  0  0  0  0  0
   -7.8240   -1.2560  -21.8320 C   0  0  0  0  0  0  0  0  0  0  0  0
   -6.7990   -2.0890  -21.0350 C   0  0  0  0  0  0  0  0  0  0  0  0
   -6.1320   -1.2160  -19.9930 C   0  0  0  0  0  0  0  0  0  0  0  0
   -6.5120   -1.2750  -18.6780 C   0  0  0  0  0  0  0  0  0  0  0  0
   -6.0170   -0.5060  -17.6700 N   0  0  0  0  0  0  0  0  0  0  0  0
   -5.0950    0.3690  -17.9980 C   0  0  0  0  0  0  0  0  0  0  0  0
   -4.6060    0.5530  -19.3210 C   0  0  0  0  0  0  0  0  0  0  0  0
   -3.6170    1.5230  -19.6300 C   0  0  0  0  0  0  0  0  0  0  0  0
   -3.1750    1.6880  -20.9150 C   0  0  0  0  0  0  0  0  0  0  0  0
   -3.7070    0.8860  -21.9500 C   0  0  0  0  0  0  0  0  0  0  0  0
   -4.6620   -0.0630  -21.6770 C   0  0  0  0  0  0  0  0  0  0  0  0
   -5.1400   -0.2560  -20.3540 C   0  0  0  0  0  0  0  0  0  0  0  0
   -5.0540   -0.6710  -22.4850 H   0  0  0  0  0  0  0  0  0  0  0  0
   -3.3530    1.0260  -22.9680 H   0  0  0  0  0  0  0  0  0  0  0  0
   -2.4230    2.4380  -21.1500 H   0  0  0  0  0  0  0  0  0  0  0  0
   -3.2230    2.1410  -18.8270 H   0  0  0  0  0  0  0  0  0  0  0  0
   -4.6890    0.9900  -17.1970 H   0  0  0  0  0  0  0  0  0  0  0  0
   -7.2720   -1.9880  -18.3630 H   0  0  0  0  0  0  0  0  0  0  0  0
   -7.3390   -2.8970  -20.5270 H   0  0  0  0  0  0  0  0  0  0  0  0
   -6.0540   -2.5410  -21.7010 H   0  0  0  0  0  0  0  0  0  0  0  0
   -7.6190   -1.1620  -23.2090 N   0  0  0  0  0  0  0  0  0  0  0  0
   -7.4870   -2.3320  -24.0750 C   0  0  0  0  0  0  0  0  0  0  0  0
   -6.4440   -2.0850  -25.1550 C   0  0  0  0  0  0  0  0  0  0  0  0
   -6.7630   -0.8130  -25.9320 C   0  0  0  0  0  0  0  0  0  0  0  0
   -6.9310    0.3690  -24.9810 C   0  0  0  0  0  0  0  0  0  0  0  0
   -7.9580    0.1040  -23.8730 C   0  0  1  0  0  0  0  0  0  0  0  0
   -9.4200    0.1830  -24.3600 C   0  0  0  0  0  0  0  0  0  0  0  0
   -9.8230    1.5740  -24.8040 C   0  0  0  0  0  0  0  0  0  0  0  0
  -10.1090    2.5610  -23.8580 C   0  0  0  0  0  0  0  0  0  0  0  0
  -10.4580    3.8490  -24.2510 C   0  0  0  0  0  0  0  0  0  0  0  0
  -10.5200    4.1780  -25.6020 C   0  0  0  0  0  0  0  0  0  0  0  0
  -10.2210    3.2100  -26.5550 C   0  0  0  0  0  0  0  0  0  0  0  0
   -9.8790    1.9210  -26.1560 C   0  0  0  0  0  0  0  0  0  0  0  0
   -9.6400    1.1730  -26.9080 H   0  0  0  0  0  0  0  0  0  0  0  0
  -10.2740    3.4500  -27.6140 H   0  0  0  0  0  0  0  0  0  0  0  0
  -10.7960    5.1820  -25.9100 H   0  0  0  0  0  0  0  0  0  0  0  0
  -10.6770    4.6000  -23.4960 H   0  0  0  0  0  0  0  0  0  0  0  0
  -10.0480    2.3160  -22.7990 H   0  0  0  0  0  0  0  0  0  0  0  0
  -10.0580   -0.1390  -23.5300 H   0  0  0  0  0  0  0  0  0  0  0  0
   -9.5630   -0.5250  -25.1840 H   0  0  0  0  0  0  0  0  0  0  0  0
   -7.8460    0.8710  -23.1050 H   0  0  0  0  0  0  0  0  0  0  0  0
   -7.2080    1.2720  -25.5330 H   0  0  0  0  0  0  0  0  0  0  0  0
   -5.9680    0.5870  -24.5030 H   0  0  0  0  0  0  0  0  0  0  0  0
   -7.6800   -0.9480  -26.5210 H   0  0  0  0  0  0  0  0  0  0  0  0
   -5.9690   -0.6050  -26.6590 H   0  0  0  0  0  0  0  0  0  0  0  0
   -5.4650   -1.9850  -24.6750 H   0  0  0  0  0  0  0  0  0  0  0  0
   -6.3820   -2.9490  -25.8260 H   0  0  0  0  0  0  0  0  0  0  0  0
   -7.2280   -3.1930  -23.4580 H   0  0  0  0  0  0  0  0  0  0  0  0
   -8.4460   -2.5850  -24.5590 H   0  0  0  0  0  0  0  0  0  0  0  0
  1  2  2  0  0  0  0
  2  3  1  0  0  0  0
  2 22  1  0  0  0  0
  3  4  1  0  0  0  0
  3 20  1  0  0  0  0
  3 21  1  0  0  0  0
  4  5  2  0  0  0  0
  4 13  1  0  0  0  0
  5  6  1  0  0  0  0
  5 19  1  0  0  0  0
  6  7  2  0  0  0  0
  7  8  1  0  0  0  0
  7 18  1  0  0  0  0
  8  9  2  0  0  0  0
  8 13  1  0  0  0  0
  9 10  1  0  0  0  0
  9 17  1  0  0  0  0
 10 11  2  0  0  0  0
 10 16  1  0  0  0  0
 11 12  1  0  0  0  0
 11 15  1  0  0  0  0
 12 13  2  0  0  0  0
 12 14  1  0  0  0  0
 22 23  1  0  0  0  0
 22 27  1  0  0  0  0
 23 24  1  0  0  0  0
 23 49  1  0  0  0  0
 23 50  1  0  0  0  0
 24 25  1  0  0  0  0
 24 47  1  0  0  0  0
 24 48  1  0  0  0  0
 25 26  1  0  0  0  0
 25 45  1  0  0  0  0
 25 46  1  0  0  0  0
 26 27  1  0  0  0  0
 26 43  1  0  0  0  0
 26 44  1  0  0  0  0
 27 28  1  0  0  0  0
 27 42  1  1  0  0  0
 28 29  1  0  0  0  0
 28 40  1  0  0  0  0
 28 41  1  0  0  0  0
 29 30  2  0  0  0  0
 29 34  1  0  0  0  0
 30 31  1  0  0  0  0
 30 39  1  0  0  0  0
 31 32  2  0  0  0  0
 31 38  1  0  0  0  0
 32 33  1  0  0  0  0
 32 37  1  0  0  0  0
 33 34  2  0  0  0  0
 33 36  1  0  0  0  0
 34 35  1  0  0  0  0
M  END
>  <MODEL>
       6

$$$$
best_conformers_73.pdb
 OpenBabel01292518153D

 50 53  0  0  1  0  0  0  0  0999 V2000
   -8.7030   -0.6550  -21.2490 O   0  0  0  0  0  0  0  0  0  0  0  0
   -7.8240   -1.2560  -21.8320 C   0  0  0  0  0  0  0  0  0  0  0  0
   -6.7990   -2.0890  -21.0350 C   0  0  0  0  0  0  0  0  0  0  0  0
   -6.1320   -1.2160  -19.9930 C   0  0  0  0  0  0  0  0  0  0  0  0
   -6.5120   -1.2750  -18.6780 C   0  0  0  0  0  0  0  0  0  0  0  0
   -6.0170   -0.5060  -17.6700 N   0  0  0  0  0  0  0  0  0  0  0  0
   -5.0950    0.3690  -17.9980 C   0  0  0  0  0  0  0  0  0  0  0  0
   -4.6060    0.5530  -19.3210 C   0  0  0  0  0  0  0  0  0  0  0  0
   -3.6170    1.5230  -19.6300 C   0  0  0  0  0  0  0  0  0  0  0  0
   -3.1750    1.6880  -20.9150 C   0  0  0  0  0  0  0  0  0  0  0  0
   -3.7070    0.8860  -21.9500 C   0  0  0  0  0  0  0  0  0  0  0  0
   -4.6620   -0.0630  -21.6770 C   0  0  0  0  0  0  0  0  0  0  0  0
   -5.1400   -0.2560  -20.3540 C   0  0  0  0  0  0  0  0  0  0  0  0
   -5.0540   -0.6710  -22.4850 H   0  0  0  0  0  0  0  0  0  0  0  0
   -3.3530    1.0260  -22.9680 H   0  0  0  0  0  0  0  0  0  0  0  0
   -2.4230    2.4380  -21.1500 H   0  0  0  0  0  0  0  0  0  0  0  0
   -3.2230    2.1410  -18.8270 H   0  0  0  0  0  0  0  0  0  0  0  0
   -4.6890    0.9900  -17.1970 H   0  0  0  0  0  0  0  0  0  0  0  0
   -7.2720   -1.9880  -18.3630 H   0  0  0  0  0  0  0  0  0  0  0  0
   -7.3390   -2.8970  -20.5270 H   0  0  0  0  0  0  0  0  0  0  0  0
   -6.0540   -2.5410  -21.7010 H   0  0  0  0  0  0  0  0  0  0  0  0
   -7.6190   -1.1620  -23.2100 N   0  0  0  0  0  0  0  0  0  0  0  0
   -7.4870   -2.3320  -24.0750 C   0  0  0  0  0  0  0  0  0  0  0  0
   -6.4440   -2.0860  -25.1550 C   0  0  0  0  0  0  0  0  0  0  0  0
   -6.7620   -0.8140  -25.9320 C   0  0  0  0  0  0  0  0  0  0  0  0
   -6.9310    0.3690  -24.9810 C   0  0  0  0  0  0  0  0  0  0  0  0
   -7.9580    0.1030  -23.8730 C   0  0  1  0  0  0  0  0  0  0  0  0
   -9.4200    0.1830  -24.3600 C   0  0  0  0  0  0  0  0  0  0  0  0
   -9.8230    1.5730  -24.8040 C   0  0  0  0  0  0  0  0  0  0  0  0
   -9.8790    1.9210  -26.1560 C   0  0  0  0  0  0  0  0  0  0  0  0
  -10.2210    3.2100  -26.5560 C   0  0  0  0  0  0  0  0  0  0  0  0
  -10.5200    4.1780  -25.6020 C   0  0  0  0  0  0  0  0  0  0  0  0
  -10.4580    3.8490  -24.2510 C   0  0  0  0  0  0  0  0  0  0  0  0
  -10.1080    2.5610  -23.8580 C   0  0  0  0  0  0  0  0  0  0  0  0
  -10.0480    2.3160  -22.7990 H   0  0  0  0  0  0  0  0  0  0  0  0
  -10.6760    4.6000  -23.4970 H   0  0  0  0  0  0  0  0  0  0  0  0
  -10.7960    5.1820  -25.9100 H   0  0  0  0  0  0  0  0  0  0  0  0
  -10.2740    3.4500  -27.6150 H   0  0  0  0  0  0  0  0  0  0  0  0
   -9.6390    1.1720  -26.9080 H   0  0  0  0  0  0  0  0  0  0  0  0
  -10.0580   -0.1390  -23.5300 H   0  0  0  0  0  0  0  0  0  0  0  0
   -9.5630   -0.5250  -25.1840 H   0  0  0  0  0  0  0  0  0  0  0  0
   -7.8460    0.8710  -23.1050 H   0  0  0  0  0  0  0  0  0  0  0  0
   -5.9680    0.5860  -24.5030 H   0  0  0  0  0  0  0  0  0  0  0  0
   -7.2080    1.2720  -25.5330 H   0  0  0  0  0  0  0  0  0  0  0  0
   -7.6800   -0.9480  -26.5210 H   0  0  0  0  0  0  0  0  0  0  0  0
   -5.9680   -0.6050  -26.6590 H   0  0  0  0  0  0  0  0  0  0  0  0
   -5.4650   -1.9850  -24.6750 H   0  0  0  0  0  0  0  0  0  0  0  0
   -6.3820   -2.9490  -25.8260 H   0  0  0  0  0  0  0  0  0  0  0  0
   -7.2280   -3.1930  -23.4580 H   0  0  0  0  0  0  0  0  0  0  0  0
   -8.4460   -2.5850  -24.5590 H   0  0  0  0  0  0  0  0  0  0  0  0
  1  2  2  0  0  0  0
  2  3  1  0  0  0  0
  2 22  1  0  0  0  0
  3  4  1  0  0  0  0
  3 20  1  0  0  0  0
  3 21  1  0  0  0  0
  4  5  2  0  0  0  0
  4 13  1  0  0  0  0
  5  6  1  0  0  0  0
  5 19  1  0  0  0  0
  6  7  2  0  0  0  0
  7  8  1  0  0  0  0
  7 18  1  0  0  0  0
  8  9  2  0  0  0  0
  8 13  1  0  0  0  0
  9 10  1  0  0  0  0
  9 17  1  0  0  0  0
 10 11  2  0  0  0  0
 10 16  1  0  0  0  0
 11 12  1  0  0  0  0
 11 15  1  0  0  0  0
 12 13  2  0  0  0  0
 12 14  1  0  0  0  0
 22 23  1  0  0  0  0
 22 27  1  0  0  0  0
 23 24  1  0  0  0  0
 23 49  1  0  0  0  0
 23 50  1  0  0  0  0
 24 25  1  0  0  0  0
 24 47  1  0  0  0  0
 24 48  1  0  0  0  0
 25 26  1  0  0  0  0
 25 45  1  0  0  0  0
 25 46  1  0  0  0  0
 26 27  1  0  0  0  0
 26 43  1  0  0  0  0
 26 44  1  0  0  0  0
 27 28  1  0  0  0  0
 27 42  1  1  0  0  0
 28 29  1  0  0  0  0
 28 40  1  0  0  0  0
 28 41  1  0  0  0  0
 29 30  2  0  0  0  0
 29 34  1  0  0  0  0
 30 31  1  0  0  0  0
 30 39  1  0  0  0  0
 31 32  2  0  0  0  0
 31 38  1  0  0  0  0
 32 33  1  0  0  0  0
 32 37  1  0  0  0  0
 33 34  2  0  0  0  0
 33 36  1  0  0  0  0
 34 35  1  0  0  0  0
M  END
>  <MODEL>
       7

$$$$
best_conformers_73.pdb
 OpenBabel01292518153D

 50 53  0  0  1  0  0  0  0  0999 V2000
   -9.0670   -2.5110  -20.3580 O   0  0  0  0  0  0  0  0  0  0  0  0
   -8.3340   -1.9080  -21.1200 C   0  0  0  0  0  0  0  0  0  0  0  0
   -6.8150   -2.0940  -21.0050 C   0  0  0  0  0  0  0  0  0  0  0  0
   -6.1540   -1.1810  -20.0020 C   0  0  0  0  0  0  0  0  0  0  0  0
   -6.5190   -1.2670  -18.6840 C   0  0  0  0  0  0  0  0  0  0  0  0
   -6.0170   -0.5100  -17.6760 N   0  0  0  0  0  0  0  0  0  0  0  0
   -5.0980    0.3700  -17.9980 C   0  0  0  0  0  0  0  0  0  0  0  0
   -4.5960    0.5550  -19.3150 C   0  0  0  0  0  0  0  0  0  0  0  0
   -3.6040    1.5210  -19.6120 C   0  0  0  0  0  0  0  0  0  0  0  0
   -3.1420    1.6790  -20.8900 C   0  0  0  0  0  0  0  0  0  0  0  0
   -3.6550    0.8750  -21.9320 C   0  0  0  0  0  0  0  0  0  0  0  0
   -4.6250   -0.0620  -21.6690 C   0  0  0  0  0  0  0  0  0  0  0  0
   -5.1290   -0.2510  -20.3550 C   0  0  0  0  0  0  0  0  0  0  0  0
   -5.0400   -0.6480  -22.4880 H   0  0  0  0  0  0  0  0  0  0  0  0
   -3.2940    1.0150  -22.9480 H   0  0  0  0  0  0  0  0  0  0  0  0
   -2.3880    2.4290  -21.1080 H   0  0  0  0  0  0  0  0  0  0  0  0
   -3.2370    2.1350  -18.7930 H   0  0  0  0  0  0  0  0  0  0  0  0
   -4.7040    0.9870  -17.1870 H   0  0  0  0  0  0  0  0  0  0  0  0
   -7.2740   -1.9920  -18.3900 H   0  0  0  0  0  0  0  0  0  0  0  0
   -6.3150   -2.0380  -21.9720 H   0  0  0  0  0  0  0  0  0  0  0  0
   -6.7420   -3.1320  -20.6630 H   0  0  0  0  0  0  0  0  0  0  0  0
   -8.8430   -1.1080  -22.1180 N   0  0  0  0  0  0  0  0  0  0  0  0
   -8.0990   -0.0170  -22.7180 C   0  0  0  0  0  0  0  0  0  0  0  0
   -9.0180    1.1740  -22.9870 C   0  0  0  0  0  0  0  0  0  0  0  0
  -10.2360    0.7560  -23.8180 C   0  0  0  0  0  0  0  0  0  0  0  0
  -10.9770   -0.3820  -23.1080 C   0  0  0  0  0  0  0  0  0  0  0  0
  -10.0590   -1.5680  -22.7850 C   0  0  1  0  0  0  0  0  0  0  0  0
   -9.7420   -2.4130  -24.0450 C   0  0  0  0  0  0  0  0  0  0  0  0
   -8.8820   -3.6410  -23.7790 C   0  0  0  0  0  0  0  0  0  0  0  0
   -9.4390   -4.7670  -23.1800 C   0  0  0  0  0  0  0  0  0  0  0  0
   -8.6500   -5.8870  -22.8900 C   0  0  0  0  0  0  0  0  0  0  0  0
   -7.2880   -5.8610  -23.1540 C   0  0  0  0  0  0  0  0  0  0  0  0
   -6.7090   -4.7470  -23.7620 C   0  0  0  0  0  0  0  0  0  0  0  0
   -7.5140   -3.6520  -24.0800 C   0  0  0  0  0  0  0  0  0  0  0  0
   -7.0910   -2.7720  -24.5650 H   0  0  0  0  0  0  0  0  0  0  0  0
   -5.6440   -4.7360  -23.9990 H   0  0  0  0  0  0  0  0  0  0  0  0
   -6.7050   -6.7330  -22.8720 H   0  0  0  0  0  0  0  0  0  0  0  0
   -9.0420   -6.8120  -22.4560 H   0  0  0  0  0  0  0  0  0  0  0  0
  -10.5010   -4.6900  -22.9410 H   0  0  0  0  0  0  0  0  0  0  0  0
  -10.7140   -2.6870  -24.4830 H   0  0  0  0  0  0  0  0  0  0  0  0
   -9.2440   -1.7690  -24.7820 H   0  0  0  0  0  0  0  0  0  0  0  0
  -10.5320   -2.2100  -22.0330 H   0  0  0  0  0  0  0  0  0  0  0  0
  -11.8190   -0.7450  -23.7120 H   0  0  0  0  0  0  0  0  0  0  0  0
  -11.3930   -0.0050  -22.1670 H   0  0  0  0  0  0  0  0  0  0  0  0
  -10.9120    1.6090  -23.9610 H   0  0  0  0  0  0  0  0  0  0  0  0
   -9.9270    0.4400  -24.8260 H   0  0  0  0  0  0  0  0  0  0  0  0
   -8.4350    1.9510  -23.4970 H   0  0  0  0  0  0  0  0  0  0  0  0
   -9.3530    1.5910  -22.0250 H   0  0  0  0  0  0  0  0  0  0  0  0
   -7.3150    0.2550  -22.0070 H   0  0  0  0  0  0  0  0  0  0  0  0
   -7.6140   -0.3440  -23.6550 H   0  0  0  0  0  0  0  0  0  0  0  0
  1  2  2  0  0  0  0
  2  3  1  0  0  0  0
  2 22  1  0  0  0  0
  3  4  1  0  0  0  0
  3 20  1  0  0  0  0
  3 21  1  0  0  0  0
  4  5  2  0  0  0  0
  4 13  1  0  0  0  0
  5  6  1  0  0  0  0
  5 19  1  0  0  0  0
  6  7  2  0  0  0  0
  7  8  1  0  0  0  0
  7 18  1  0  0  0  0
  8  9  2  0  0  0  0
  8 13  1  0  0  0  0
  9 10  1  0  0  0  0
  9 17  1  0  0  0  0
 10 11  2  0  0  0  0
 10 16  1  0  0  0  0
 11 12  1  0  0  0  0
 11 15  1  0  0  0  0
 12 13  2  0  0  0  0
 12 14  1  0  0  0  0
 22 23  1  0  0  0  0
 22 27  1  0  0  0  0
 23 24  1  0  0  0  0
 23 49  1  0  0  0  0
 23 50  1  0  0  0  0
 24 25  1  0  0  0  0
 24 47  1  0  0  0  0
 24 48  1  0  0  0  0
 25 26  1  0  0  0  0
 25 45  1  0  0  0  0
 25 46  1  0  0  0  0
 26 27  1  0  0  0  0
 26 43  1  0  0  0  0
 26 44  1  0  0  0  0
 27 28  1  0  0  0  0
 27 42  1  1  0  0  0
 28 29  1  0  0  0  0
 28 40  1  0  0  0  0
 28 41  1  0  0  0  0
 29 30  2  0  0  0  0
 29 34  1  0  0  0  0
 30 31  1  0  0  0  0
 30 39  1  0  0  0  0
 31 32  2  0  0  0  0
 31 38  1  0  0  0  0
 32 33  1  0  0  0  0
 32 37  1  0  0  0  0
 33 34  2  0  0  0  0
 33 36  1  0  0  0  0
 34 35  1  0  0  0  0
M  END
>  <MODEL>
       8

$$$$
best_conformers_73.pdb
 OpenBabel01292518153D

 50 53  0  0  1  0  0  0  0  0999 V2000
   -7.9860   -0.1940  -21.8310 O   0  0  0  0  0  0  0  0  0  0  0  0
   -7.9390   -1.4080  -21.7820 C   0  0  0  0  0  0  0  0  0  0  0  0
   -6.7970   -2.1190  -21.0220 C   0  0  0  0  0  0  0  0  0  0  0  0
   -6.1350   -1.2180  -20.0010 C   0  0  0  0  0  0  0  0  0  0  0  0
   -6.5100   -1.2760  -18.6820 C   0  0  0  0  0  0  0  0  0  0  0  0
   -6.0190   -0.5070  -17.6740 N   0  0  0  0  0  0  0  0  0  0  0  0
   -5.0940    0.3700  -17.9990 C   0  0  0  0  0  0  0  0  0  0  0  0
   -4.6070    0.5550  -19.3240 C   0  0  0  0  0  0  0  0  0  0  0  0
   -3.6120    1.5240  -19.6280 C   0  0  0  0  0  0  0  0  0  0  0  0
   -3.1730    1.6900  -20.9170 C   0  0  0  0  0  0  0  0  0  0  0  0
   -3.7150    0.8930  -21.9480 C   0  0  0  0  0  0  0  0  0  0  0  0
   -4.6760   -0.0550  -21.6830 C   0  0  0  0  0  0  0  0  0  0  0  0
   -5.1460   -0.2500  -20.3570 C   0  0  0  0  0  0  0  0  0  0  0  0
   -5.0910   -0.6400  -22.4980 H   0  0  0  0  0  0  0  0  0  0  0  0
   -3.3680    1.0410  -22.9670 H   0  0  0  0  0  0  0  0  0  0  0  0
   -2.4180    2.4360  -21.1530 H   0  0  0  0  0  0  0  0  0  0  0  0
   -3.2110    2.1390  -18.8260 H   0  0  0  0  0  0  0  0  0  0  0  0
   -4.6870    0.9910  -17.1990 H   0  0  0  0  0  0  0  0  0  0  0  0
   -7.2700   -1.9880  -18.3680 H   0  0  0  0  0  0  0  0  0  0  0  0
   -7.2020   -2.9990  -20.5040 H   0  0  0  0  0  0  0  0  0  0  0  0
   -6.0540   -2.4890  -21.7400 H   0  0  0  0  0  0  0  0  0  0  0  0
   -8.9390   -2.2010  -22.3250 N   0  0  0  0  0  0  0  0  0  0  0  0
  -10.2420   -1.5770  -22.5950 C   0  0  0  0  0  0  0  0  0  0  0  0
  -11.3820   -2.5390  -22.2990 C   0  0  0  0  0  0  0  0  0  0  0  0
  -11.1990   -3.8430  -23.0480 C   0  0  0  0  0  0  0  0  0  0  0  0
   -9.8190   -4.4110  -22.7550 C   0  0  0  0  0  0  0  0  0  0  0  0
   -8.6740   -3.4630  -23.0260 C   0  0  1  0  0  0  0  0  0  0  0  0
   -8.4030   -3.3170  -24.5290 C   0  0  0  0  0  0  0  0  0  0  0  0
   -7.1720   -2.5050  -24.8130 C   0  0  0  0  0  0  0  0  0  0  0  0
   -5.9070   -3.0870  -24.7210 C   0  0  0  0  0  0  0  0  0  0  0  0
   -4.7630   -2.3370  -24.9650 C   0  0  0  0  0  0  0  0  0  0  0  0
   -4.8730   -0.9860  -25.2810 C   0  0  0  0  0  0  0  0  0  0  0  0
   -6.1280   -0.3880  -25.3470 C   0  0  0  0  0  0  0  0  0  0  0  0
   -7.2680   -1.1460  -25.1110 C   0  0  0  0  0  0  0  0  0  0  0  0
   -8.2450   -0.6730  -25.1570 H   0  0  0  0  0  0  0  0  0  0  0  0
   -6.2190    0.6680  -25.5870 H   0  0  0  0  0  0  0  0  0  0  0  0
   -3.9800   -0.3970  -25.4690 H   0  0  0  0  0  0  0  0  0  0  0  0
   -3.7860   -2.8060  -24.9060 H   0  0  0  0  0  0  0  0  0  0  0  0
   -5.8120   -4.1400  -24.4680 H   0  0  0  0  0  0  0  0  0  0  0  0
   -8.2920   -4.3220  -24.9600 H   0  0  0  0  0  0  0  0  0  0  0  0
   -9.2800   -2.8760  -25.0110 H   0  0  0  0  0  0  0  0  0  0  0  0
   -7.7830   -3.9080  -22.5710 H   0  0  0  0  0  0  0  0  0  0  0  0
   -9.7110   -4.5930  -21.6830 H   0  0  0  0  0  0  0  0  0  0  0  0
   -9.6680   -5.3460  -23.3100 H   0  0  0  0  0  0  0  0  0  0  0  0
  -11.3130   -3.6860  -24.1250 H   0  0  0  0  0  0  0  0  0  0  0  0
  -11.9880   -4.5480  -22.7720 H   0  0  0  0  0  0  0  0  0  0  0  0
  -11.4090   -2.7360  -21.2270 H   0  0  0  0  0  0  0  0  0  0  0  0
  -12.3480   -2.0860  -22.5450 H   0  0  0  0  0  0  0  0  0  0  0  0
  -10.3290   -0.6880  -21.9710 H   0  0  0  0  0  0  0  0  0  0  0  0
  -10.3260   -1.2240  -23.6330 H   0  0  0  0  0  0  0  0  0  0  0  0
  1  2  2  0  0  0  0
  2  3  1  0  0  0  0
  2 22  1  0  0  0  0
  3  4  1  0  0  0  0
  3 20  1  0  0  0  0
  3 21  1  0  0  0  0
  4  5  2  0  0  0  0
  4 13  1  0  0  0  0
  5  6  1  0  0  0  0
  5 19  1  0  0  0  0
  6  7  2  0  0  0  0
  7  8  1  0  0  0  0
  7 18  1  0  0  0  0
  8  9  2  0  0  0  0
  8 13  1  0  0  0  0
  9 10  1  0  0  0  0
  9 17  1  0  0  0  0
 10 11  2  0  0  0  0
 10 16  1  0  0  0  0
 11 12  1  0  0  0  0
 11 15  1  0  0  0  0
 12 13  2  0  0  0  0
 12 14  1  0  0  0  0
 22 23  1  0  0  0  0
 22 27  1  0  0  0  0
 23 24  1  0  0  0  0
 23 49  1  0  0  0  0
 23 50  1  0  0  0  0
 24 25  1  0  0  0  0
 24 47  1  0  0  0  0
 24 48  1  0  0  0  0
 25 26  1  0  0  0  0
 25 45  1  0  0  0  0
 25 46  1  0  0  0  0
 26 27  1  0  0  0  0
 26 43  1  0  0  0  0
 26 44  1  0  0  0  0
 27 28  1  0  0  0  0
 27 42  1  1  0  0  0
 28 29  1  0  0  0  0
 28 40  1  0  0  0  0
 28 41  1  0  0  0  0
 29 30  2  0  0  0  0
 29 34  1  0  0  0  0
 30 31  1  0  0  0  0
 30 39  1  0  0  0  0
 31 32  2  0  0  0  0
 31 38  1  0  0  0  0
 32 33  1  0  0  0  0
 32 37  1  0  0  0  0
 33 34  2  0  0  0  0
 33 36  1  0  0  0  0
 34 35  1  0  0  0  0
M  END
>  <MODEL>
       9

$$$$
best_conformers_73.pdb
 OpenBabel01292518153D

 50 53  0  0  1  0  0  0  0  0999 V2000
   -7.9870   -0.1940  -21.8310 O   0  0  0  0  0  0  0  0  0  0  0  0
   -7.9400   -1.4080  -21.7810 C   0  0  0  0  0  0  0  0  0  0  0  0
   -6.7970   -2.1180  -21.0220 C   0  0  0  0  0  0  0  0  0  0  0  0
   -6.1350   -1.2180  -20.0010 C   0  0  0  0  0  0  0  0  0  0  0  0
   -6.5100   -1.2760  -18.6820 C   0  0  0  0  0  0  0  0  0  0  0  0
   -6.0190   -0.5070  -17.6740 N   0  0  0  0  0  0  0  0  0  0  0  0
   -5.0940    0.3700  -17.9990 C   0  0  0  0  0  0  0  0  0  0  0  0
   -4.6070    0.5550  -19.3240 C   0  0  0  0  0  0  0  0  0  0  0  0
   -3.6120    1.5240  -19.6280 C   0  0  0  0  0  0  0  0  0  0  0  0
   -3.1730    1.6900  -20.9170 C   0  0  0  0  0  0  0  0  0  0  0  0
   -3.7150    0.8930  -21.9480 C   0  0  0  0  0  0  0  0  0  0  0  0
   -4.6760   -0.0540  -21.6830 C   0  0  0  0  0  0  0  0  0  0  0  0
   -5.1460   -0.2500  -20.3570 C   0  0  0  0  0  0  0  0  0  0  0  0
   -5.0910   -0.6400  -22.4980 H   0  0  0  0  0  0  0  0  0  0  0  0
   -3.3680    1.0410  -22.9670 H   0  0  0  0  0  0  0  0  0  0  0  0
   -2.4180    2.4360  -21.1530 H   0  0  0  0  0  0  0  0  0  0  0  0
   -3.2110    2.1390  -18.8260 H   0  0  0  0  0  0  0  0  0  0  0  0
   -4.6870    0.9910  -17.1990 H   0  0  0  0  0  0  0  0  0  0  0  0
   -7.2700   -1.9880  -18.3680 H   0  0  0  0  0  0  0  0  0  0  0  0
   -7.2010   -3.0000  -20.5040 H   0  0  0  0  0  0  0  0  0  0  0  0
   -6.0540   -2.4880  -21.7410 H   0  0  0  0  0  0  0  0  0  0  0  0
   -8.9410   -2.2010  -22.3220 N   0  0  0  0  0  0  0  0  0  0  0  0
  -10.2440   -1.5770  -22.5910 C   0  0  0  0  0  0  0  0  0  0  0  0
  -11.3840   -2.5390  -22.2940 C   0  0  0  0  0  0  0  0  0  0  0  0
  -11.2020   -3.8430  -23.0430 C   0  0  0  0  0  0  0  0  0  0  0  0
   -9.8210   -4.4110  -22.7510 C   0  0  0  0  0  0  0  0  0  0  0  0
   -8.6760   -3.4630  -23.0240 C   0  0  1  0  0  0  0  0  0  0  0  0
   -8.4070   -3.3170  -24.5270 C   0  0  0  0  0  0  0  0  0  0  0  0
   -7.1760   -2.5050  -24.8120 C   0  0  0  0  0  0  0  0  0  0  0  0
   -7.2730   -1.1460  -25.1110 C   0  0  0  0  0  0  0  0  0  0  0  0
   -6.1330   -0.3880  -25.3470 C   0  0  0  0  0  0  0  0  0  0  0  0
   -4.8780   -0.9860  -25.2820 C   0  0  0  0  0  0  0  0  0  0  0  0
   -4.7680   -2.3370  -24.9660 C   0  0  0  0  0  0  0  0  0  0  0  0
   -5.9110   -3.0870  -24.7210 C   0  0  0  0  0  0  0  0  0  0  0  0
   -5.8160   -4.1400  -24.4680 H   0  0  0  0  0  0  0  0  0  0  0  0
   -3.7900   -2.8060  -24.9070 H   0  0  0  0  0  0  0  0  0  0  0  0
   -3.9850   -0.3960  -25.4710 H   0  0  0  0  0  0  0  0  0  0  0  0
   -6.2250    0.6670  -25.5860 H   0  0  0  0  0  0  0  0  0  0  0  0
   -8.2500   -0.6730  -25.1550 H   0  0  0  0  0  0  0  0  0  0  0  0
   -9.2840   -2.8770  -25.0080 H   0  0  0  0  0  0  0  0  0  0  0  0
   -8.2970   -4.3220  -24.9580 H   0  0  0  0  0  0  0  0  0  0  0  0
   -7.7850   -3.9080  -22.5700 H   0  0  0  0  0  0  0  0  0  0  0  0
   -9.6700   -5.3460  -23.3070 H   0  0  0  0  0  0  0  0  0  0  0  0
   -9.7120   -4.5920  -21.6790 H   0  0  0  0  0  0  0  0  0  0  0  0
  -11.9900   -4.5480  -22.7660 H   0  0  0  0  0  0  0  0  0  0  0  0
  -11.3170   -3.6860  -24.1200 H   0  0  0  0  0  0  0  0  0  0  0  0
  -11.4090   -2.7360  -21.2220 H   0  0  0  0  0  0  0  0  0  0  0  0
  -12.3500   -2.0860  -22.5380 H   0  0  0  0  0  0  0  0  0  0  0  0
  -10.3300   -0.6880  -21.9670 H   0  0  0  0  0  0  0  0  0  0  0  0
  -10.3290   -1.2240  -23.6280 H   0  0  0  0  0  0  0  0  0  0  0  0
  1  2  2  0  0  0  0
  2  3  1  0  0  0  0
  2 22  1  0  0  0  0
  3  4  1  0  0  0  0
  3 20  1  0  0  0  0
  3 21  1  0  0  0  0
  4  5  2  0  0  0  0
  4 13  1  0  0  0  0
  5  6  1  0  0  0  0
  5 19  1  0  0  0  0
  6  7  2  0  0  0  0
  7  8  1  0  0  0  0
  7 18  1  0  0  0  0
  8  9  2  0  0  0  0
  8 13  1  0  0  0  0
  9 10  1  0  0  0  0
  9 17  1  0  0  0  0
 10 11  2  0  0  0  0
 10 16  1  0  0  0  0
 11 12  1  0  0  0  0
 11 15  1  0  0  0  0
 12 13  2  0  0  0  0
 12 14  1  0  0  0  0
 22 23  1  0  0  0  0
 22 27  1  0  0  0  0
 23 24  1  0  0  0  0
 23 49  1  0  0  0  0
 23 50  1  0  0  0  0
 24 25  1  0  0  0  0
 24 47  1  0  0  0  0
 24 48  1  0  0  0  0
 25 26  1  0  0  0  0
 25 45  1  0  0  0  0
 25 46  1  0  0  0  0
 26 27  1  0  0  0  0
 26 43  1  0  0  0  0
 26 44  1  0  0  0  0
 27 28  1  0  0  0  0
 27 42  1  1  0  0  0
 28 29  1  0  0  0  0
 28 40  1  0  0  0  0
 28 41  1  0  0  0  0
 29 30  2  0  0  0  0
 29 34  1  0  0  0  0
 30 31  1  0  0  0  0
 30 39  1  0  0  0  0
 31 32  2  0  0  0  0
 31 38  1  0  0  0  0
 32 33  1  0  0  0  0
 32 37  1  0  0  0  0
 33 34  2  0  0  0  0
 33 36  1  0  0  0  0
 34 35  1  0  0  0  0
M  END
>  <MODEL>
      10

$$$$
best_conformers_73.pdb
 OpenBabel01292518153D

 50 53  0  0  1  0  0  0  0  0999 V2000
   -8.4070   -0.3260  -21.3610 O   0  0  0  0  0  0  0  0  0  0  0  0
   -7.7360   -1.1910  -21.8900 C   0  0  0  0  0  0  0  0  0  0  0  0
   -6.8060   -2.0760  -21.0450 C   0  0  0  0  0  0  0  0  0  0  0  0
   -6.1290   -1.2410  -19.9890 C   0  0  0  0  0  0  0  0  0  0  0  0
   -6.5220   -1.3000  -18.6810 C   0  0  0  0  0  0  0  0  0  0  0  0
   -6.0380   -0.5270  -17.6700 N   0  0  0  0  0  0  0  0  0  0  0  0
   -5.1140    0.3480  -17.9940 C   0  0  0  0  0  0  0  0  0  0  0  0
   -4.6140    0.5310  -19.3120 C   0  0  0  0  0  0  0  0  0  0  0  0
   -3.6320    1.5100  -19.6170 C   0  0  0  0  0  0  0  0  0  0  0  0
   -3.1850    1.6770  -20.9000 C   0  0  0  0  0  0  0  0  0  0  0  0
   -3.7050    0.8710  -21.9410 C   0  0  0  0  0  0  0  0  0  0  0  0
   -4.6540   -0.0840  -21.6700 C   0  0  0  0  0  0  0  0  0  0  0  0
   -5.1350   -0.2820  -20.3480 C   0  0  0  0  0  0  0  0  0  0  0  0
   -5.0450   -0.6940  -22.4820 H   0  0  0  0  0  0  0  0  0  0  0  0
   -3.3550    1.0170  -22.9610 H   0  0  0  0  0  0  0  0  0  0  0  0
   -2.4370    2.4330  -21.1310 H   0  0  0  0  0  0  0  0  0  0  0  0
   -3.2520    2.1320  -18.8100 H   0  0  0  0  0  0  0  0  0  0  0  0
   -4.7140    0.9740  -17.1940 H   0  0  0  0  0  0  0  0  0  0  0  0
   -7.2940   -2.0090  -18.3840 H   0  0  0  0  0  0  0  0  0  0  0  0
   -7.4100   -2.8640  -20.5750 H   0  0  0  0  0  0  0  0  0  0  0  0
   -6.0690   -2.5580  -21.6980 H   0  0  0  0  0  0  0  0  0  0  0  0
   -7.7100   -1.3850  -23.2540 N   0  0  0  0  0  0  0  0  0  0  0  0
   -7.4970   -2.6600  -23.9240 C   0  0  0  0  0  0  0  0  0  0  0  0
   -6.3640   -2.5710  -24.9420 C   0  0  0  0  0  0  0  0  0  0  0  0
   -6.6250   -1.4140  -25.9090 C   0  0  0  0  0  0  0  0  0  0  0  0
   -6.8520   -0.1050  -25.1430 C   0  0  0  0  0  0  0  0  0  0  0  0
   -7.9750   -0.2380  -24.1170 C   0  0  1  0  0  0  0  0  0  0  0  0
   -9.3240   -0.2720  -24.8470 C   0  0  0  0  0  0  0  0  0  0  0  0
  -10.4850   -0.2610  -23.9010 C   0  0  0  0  0  0  0  0  0  0  0  0
  -10.9100    0.9300  -23.3110 C   0  0  0  0  0  0  0  0  0  0  0  0
  -12.0320    0.9550  -22.4950 C   0  0  0  0  0  0  0  0  0  0  0  0
  -12.6850   -0.2420  -22.2150 C   0  0  0  0  0  0  0  0  0  0  0  0
  -12.1550   -1.4570  -22.6420 C   0  0  0  0  0  0  0  0  0  0  0  0
  -11.0640   -1.4560  -23.4970 C   0  0  0  0  0  0  0  0  0  0  0  0
  -10.6280   -2.3870  -23.8520 H   0  0  0  0  0  0  0  0  0  0  0  0
  -12.5920   -2.3970  -22.3090 H   0  0  0  0  0  0  0  0  0  0  0  0
  -13.6340   -0.2560  -21.7050 H   0  0  0  0  0  0  0  0  0  0  0  0
  -12.3790    1.9020  -22.0810 H   0  0  0  0  0  0  0  0  0  0  0  0
  -10.3470    1.8330  -23.5220 H   0  0  0  0  0  0  0  0  0  0  0  0
   -9.3700   -1.1510  -25.4990 H   0  0  0  0  0  0  0  0  0  0  0  0
   -9.3460    0.6100  -25.5000 H   0  0  0  0  0  0  0  0  0  0  0  0
   -7.9850    0.6150  -23.4340 H   0  0  0  0  0  0  0  0  0  0  0  0
   -5.9270    0.1770  -24.6240 H   0  0  0  0  0  0  0  0  0  0  0  0
   -7.1110    0.7120  -25.8260 H   0  0  0  0  0  0  0  0  0  0  0  0
   -7.4990   -1.6480  -26.5320 H   0  0  0  0  0  0  0  0  0  0  0  0
   -5.7940   -1.2940  -26.6130 H   0  0  0  0  0  0  0  0  0  0  0  0
   -6.2650   -3.5270  -25.4720 H   0  0  0  0  0  0  0  0  0  0  0  0
   -5.4100   -2.3970  -24.4290 H   0  0  0  0  0  0  0  0  0  0  0  0
   -7.3360   -3.4400  -23.1750 H   0  0  0  0  0  0  0  0  0  0  0  0
   -8.4140   -2.9410  -24.4620 H   0  0  0  0  0  0  0  0  0  0  0  0
  1  2  2  0  0  0  0
  2  3  1  0  0  0  0
  2 22  1  0  0  0  0
  3  4  1  0  0  0  0
  3 20  1  0  0  0  0
  3 21  1  0  0  0  0
  4  5  2  0  0  0  0
  4 13  1  0  0  0  0
  5  6  1  0  0  0  0
  5 19  1  0  0  0  0
  6  7  2  0  0  0  0
  7  8  1  0  0  0  0
  7 18  1  0  0  0  0
  8  9  2  0  0  0  0
  8 13  1  0  0  0  0
  9 10  1  0  0  0  0
  9 17  1  0  0  0  0
 10 11  2  0  0  0  0
 10 16  1  0  0  0  0
 11 12  1  0  0  0  0
 11 15  1  0  0  0  0
 12 13  2  0  0  0  0
 12 14  1  0  0  0  0
 22 23  1  0  0  0  0
 22 27  1  0  0  0  0
 23 24  1  0  0  0  0
 23 49  1  0  0  0  0
 23 50  1  0  0  0  0
 24 25  1  0  0  0  0
 24 47  1  0  0  0  0
 24 48  1  0  0  0  0
 25 26  1  0  0  0  0
 25 45  1  0  0  0  0
 25 46  1  0  0  0  0
 26 27  1  0  0  0  0
 26 43  1  0  0  0  0
 26 44  1  0  0  0  0
 27 28  1  0  0  0  0
 27 42  1  1  0  0  0
 28 29  1  0  0  0  0
 28 40  1  0  0  0  0
 28 41  1  0  0  0  0
 29 30  2  0  0  0  0
 29 34  1  0  0  0  0
 30 31  1  0  0  0  0
 30 39  1  0  0  0  0
 31 32  2  0  0  0  0
 31 38  1  0  0  0  0
 32 33  1  0  0  0  0
 32 37  1  0  0  0  0
 33 34  2  0  0  0  0
 33 36  1  0  0  0  0
 34 35  1  0  0  0  0
M  END
>  <MODEL>
      11

$$$$
