best_conformers_70.pdb
 OpenBabel01292518153D

 52 54  0  0  0  0  0  0  0  0999 V2000
   -5.4130   -7.8180  -26.5650 C   0  0  0  0  0  0  0  0  0  0  0  0
   -6.7150   -7.3830  -25.8780 C   0  0  0  0  0  0  0  0  0  0  0  0
   -7.4040   -6.2650  -26.6650 C   0  0  0  0  0  0  0  0  0  0  0  0
   -7.6520   -6.6450  -27.6670 H   0  0  0  0  0  0  0  0  0  0  0  0
   -8.3400   -5.9270  -26.1960 H   0  0  0  0  0  0  0  0  0  0  0  0
   -6.7350   -5.3980  -26.7800 H   0  0  0  0  0  0  0  0  0  0  0  0
   -6.3520   -7.0820  -24.4190 C   0  0  0  0  0  0  0  0  0  0  0  0
   -7.4570   -6.7480  -23.3890 C   0  0  0  0  0  0  0  0  0  0  0  0
   -8.5990   -7.7630  -23.4890 C   0  0  0  0  0  0  0  0  0  0  0  0
   -8.2010   -8.7780  -23.3970 H   0  0  0  0  0  0  0  0  0  0  0  0
   -9.3110   -7.6390  -22.6690 H   0  0  0  0  0  0  0  0  0  0  0  0
   -9.1490   -7.6960  -24.4340 H   0  0  0  0  0  0  0  0  0  0  0  0
   -7.9260   -5.2830  -23.6000 C   0  0  0  0  0  0  0  0  0  0  0  0
   -7.8850   -4.4290  -22.3390 C   0  0  0  0  0  0  0  0  0  0  0  0
   -6.5750   -4.5110  -21.6930 N   0  0  0  0  0  0  0  0  0  0  0  0
   -5.9650   -3.4710  -21.0630 C   0  0  0  0  0  0  0  0  0  0  0  0
   -4.8470   -3.5740  -20.5800 O   0  0  0  0  0  0  0  0  0  0  0  0
   -6.7680   -2.1730  -20.9790 C   0  0  0  0  0  0  0  0  0  0  0  0
   -6.1670   -1.2400  -19.9880 C   0  0  0  0  0  0  0  0  0  0  0  0
   -6.5590   -1.3270  -18.6780 C   0  0  0  0  0  0  0  0  0  0  0  0
   -6.0770   -0.5670  -17.6630 N   0  0  0  0  0  0  0  0  0  0  0  0
   -5.1540    0.3090  -17.9840 C   0  0  0  0  0  0  0  0  0  0  0  0
   -4.6340    0.4910  -19.2980 C   0  0  0  0  0  0  0  0  0  0  0  0
   -3.6520    1.4680  -19.5990 C   0  0  0  0  0  0  0  0  0  0  0  0
   -3.1900    1.6200  -20.8780 C   0  0  0  0  0  0  0  0  0  0  0  0
   -3.6730    0.7880  -21.9150 C   0  0  0  0  0  0  0  0  0  0  0  0
   -4.6150   -0.1730  -21.6500 C   0  0  0  0  0  0  0  0  0  0  0  0
   -5.1390   -0.3250  -20.3370 C   0  0  0  0  0  0  0  0  0  0  0  0
   -4.9660   -0.8210  -22.4510 H   0  0  0  0  0  0  0  0  0  0  0  0
   -3.3060    0.9280  -22.9290 H   0  0  0  0  0  0  0  0  0  0  0  0
   -2.4550    2.3870  -21.1080 H   0  0  0  0  0  0  0  0  0  0  0  0
   -3.2910    2.1040  -18.7940 H   0  0  0  0  0  0  0  0  0  0  0  0
   -4.7670    0.9320  -17.1770 H   0  0  0  0  0  0  0  0  0  0  0  0
   -7.3160   -2.0600  -18.4020 H   0  0  0  0  0  0  0  0  0  0  0  0
   -6.8420   -1.7180  -21.9750 H   0  0  0  0  0  0  0  0  0  0  0  0
   -7.7910   -2.4180  -20.6630 H   0  0  0  0  0  0  0  0  0  0  0  0
   -5.8560   -5.7790  -21.6870 C   0  0  0  0  0  0  0  0  0  0  0  0
   -6.8230   -6.9050  -21.9830 C   0  0  0  0  0  0  0  0  0  0  0  0
   -6.3050   -7.8700  -21.9260 H   0  0  0  0  0  0  0  0  0  0  0  0
   -7.5910   -6.9220  -21.1960 H   0  0  0  0  0  0  0  0  0  0  0  0
   -5.3780   -5.9080  -20.7150 H   0  0  0  0  0  0  0  0  0  0  0  0
   -5.0340   -5.7560  -22.4140 H   0  0  0  0  0  0  0  0  0  0  0  0
   -8.6940   -4.7250  -21.6630 H   0  0  0  0  0  0  0  0  0  0  0  0
   -8.0800   -3.3910  -22.6160 H   0  0  0  0  0  0  0  0  0  0  0  0
   -8.9350   -5.2420  -24.0270 H   0  0  0  0  0  0  0  0  0  0  0  0
   -7.2610   -4.7910  -24.3220 H   0  0  0  0  0  0  0  0  0  0  0  0
   -5.6120   -6.2660  -24.4070 H   0  0  0  0  0  0  0  0  0  0  0  0
   -5.8400   -7.9830  -24.0520 H   0  0  0  0  0  0  0  0  0  0  0  0
   -7.4000   -8.2380  -25.8810 H   0  0  0  0  0  0  0  0  0  0  0  0
   -5.5900   -8.2810  -27.5410 H   0  0  0  0  0  0  0  0  0  0  0  0
   -4.8740   -8.5370  -25.9390 H   0  0  0  0  0  0  0  0  0  0  0  0
   -4.7400   -6.9620  -26.7040 H   0  0  0  0  0  0  0  0  0  0  0  0
  1  2  1  0  0  0  0
  1 50  1  0  0  0  0
  1 51  1  0  0  0  0
  1 52  1  0  0  0  0
  2  3  1  0  0  0  0
  2  7  1  0  0  0  0
  2 49  1  0  0  0  0
  3  4  1  0  0  0  0
  3  5  1  0  0  0  0
  3  6  1  0  0  0  0
  7  8  1  0  0  0  0
  7 47  1  0  0  0  0
  7 48  1  0  0  0  0
  8  9  1  0  0  0  0
  8 13  1  0  0  0  0
  8 38  1  0  0  0  0
  9 10  1  0  0  0  0
  9 11  1  0  0  0  0
  9 12  1  0  0  0  0
 13 14  1  0  0  0  0
 13 45  1  0  0  0  0
 13 46  1  0  0  0  0
 14 15  1  0  0  0  0
 14 43  1  0  0  0  0
 14 44  1  0  0  0  0
 15 16  1  0  0  0  0
 15 37  1  0  0  0  0
 16 17  2  0  0  0  0
 16 18  1  0  0  0  0
 18 19  1  0  0  0  0
 18 35  1  0  0  0  0
 18 36  1  0  0  0  0
 19 20  2  0  0  0  0
 19 28  1  0  0  0  0
 20 21  1  0  0  0  0
 20 34  1  0  0  0  0
 21 22  2  0  0  0  0
 22 23  1  0  0  0  0
 22 33  1  0  0  0  0
 23 24  2  0  0  0  0
 23 28  1  0  0  0  0
 24 25  1  0  0  0  0
 24 32  1  0  0  0  0
 25 26  2  0  0  0  0
 25 31  1  0  0  0  0
 26 27  1  0  0  0  0
 26 30  1  0  0  0  0
 27 28  2  0  0  0  0
 27 29  1  0  0  0  0
 37 38  1  0  0  0  0
 37 41  1  0  0  0  0
 37 42  1  0  0  0  0
 38 39  1  0  0  0  0
 38 40  1  0  0  0  0
M  END
>  <MODEL>
       1

$$$$
best_conformers_70.pdb
 OpenBabel01292518153D

 52 54  0  0  0  0  0  0  0  0999 V2000
   -5.4140   -7.8390  -26.5560 C   0  0  0  0  0  0  0  0  0  0  0  0
   -6.7100   -7.3900  -25.8740 C   0  0  0  0  0  0  0  0  0  0  0  0
   -7.4040   -6.2780  -26.6680 C   0  0  0  0  0  0  0  0  0  0  0  0
   -8.3390   -5.9370  -26.2020 H   0  0  0  0  0  0  0  0  0  0  0  0
   -7.6520   -6.6560  -27.6710 H   0  0  0  0  0  0  0  0  0  0  0  0
   -6.7330   -5.4110  -26.7840 H   0  0  0  0  0  0  0  0  0  0  0  0
   -6.3470   -7.0920  -24.4130 C   0  0  0  0  0  0  0  0  0  0  0  0
   -7.4530   -6.7540  -23.3820 C   0  0  0  0  0  0  0  0  0  0  0  0
   -8.5960   -7.7690  -23.4760 C   0  0  0  0  0  0  0  0  0  0  0  0
   -9.1490   -7.6990  -24.4200 H   0  0  0  0  0  0  0  0  0  0  0  0
   -9.3060   -7.6490  -22.6510 H   0  0  0  0  0  0  0  0  0  0  0  0
   -8.1950   -8.7840  -23.3910 H   0  0  0  0  0  0  0  0  0  0  0  0
   -6.8100   -6.9100  -21.9780 C   0  0  0  0  0  0  0  0  0  0  0  0
   -5.8480   -5.7780  -21.6920 C   0  0  0  0  0  0  0  0  0  0  0  0
   -6.5720   -4.5110  -21.6940 N   0  0  0  0  0  0  0  0  0  0  0  0
   -5.9630   -3.4700  -21.0710 C   0  0  0  0  0  0  0  0  0  0  0  0
   -4.8390   -3.5640  -20.5910 O   0  0  0  0  0  0  0  0  0  0  0  0
   -6.7670   -2.1740  -20.9800 C   0  0  0  0  0  0  0  0  0  0  0  0
   -6.1670   -1.2410  -19.9860 C   0  0  0  0  0  0  0  0  0  0  0  0
   -6.5580   -1.3280  -18.6810 C   0  0  0  0  0  0  0  0  0  0  0  0
   -6.0780   -0.5680  -17.6630 N   0  0  0  0  0  0  0  0  0  0  0  0
   -5.1520    0.3090  -17.9860 C   0  0  0  0  0  0  0  0  0  0  0  0
   -4.6340    0.4900  -19.2990 C   0  0  0  0  0  0  0  0  0  0  0  0
   -3.6520    1.4680  -19.6000 C   0  0  0  0  0  0  0  0  0  0  0  0
   -3.1910    1.6190  -20.8790 C   0  0  0  0  0  0  0  0  0  0  0  0
   -3.6730    0.7890  -21.9170 C   0  0  0  0  0  0  0  0  0  0  0  0
   -4.6170   -0.1740  -21.6520 C   0  0  0  0  0  0  0  0  0  0  0  0
   -5.1390   -0.3250  -20.3380 C   0  0  0  0  0  0  0  0  0  0  0  0
   -4.9670   -0.8190  -22.4530 H   0  0  0  0  0  0  0  0  0  0  0  0
   -3.3070    0.9290  -22.9300 H   0  0  0  0  0  0  0  0  0  0  0  0
   -2.4550    2.3860  -21.1090 H   0  0  0  0  0  0  0  0  0  0  0  0
   -3.2900    2.1030  -18.7940 H   0  0  0  0  0  0  0  0  0  0  0  0
   -4.7660    0.9320  -17.1800 H   0  0  0  0  0  0  0  0  0  0  0  0
   -7.3180   -2.0620  -18.4040 H   0  0  0  0  0  0  0  0  0  0  0  0
   -7.7870   -2.4260  -20.6620 H   0  0  0  0  0  0  0  0  0  0  0  0
   -6.8460   -1.7190  -21.9740 H   0  0  0  0  0  0  0  0  0  0  0  0
   -7.8860   -4.4330  -22.3410 C   0  0  0  0  0  0  0  0  0  0  0  0
   -7.9240   -5.2890  -23.6020 C   0  0  0  0  0  0  0  0  0  0  0  0
   -7.2550   -4.7950  -24.3200 H   0  0  0  0  0  0  0  0  0  0  0  0
   -8.9330   -5.2480  -24.0340 H   0  0  0  0  0  0  0  0  0  0  0  0
   -8.0850   -3.3960  -22.6200 H   0  0  0  0  0  0  0  0  0  0  0  0
   -8.6900   -4.7340  -21.6610 H   0  0  0  0  0  0  0  0  0  0  0  0
   -5.3680   -5.9080  -20.7200 H   0  0  0  0  0  0  0  0  0  0  0  0
   -5.0280   -5.7510  -22.4220 H   0  0  0  0  0  0  0  0  0  0  0  0
   -6.2870   -7.8730  -21.9250 H   0  0  0  0  0  0  0  0  0  0  0  0
   -7.5750   -6.9260  -21.1890 H   0  0  0  0  0  0  0  0  0  0  0  0
   -5.8390   -7.9980  -24.0510 H   0  0  0  0  0  0  0  0  0  0  0  0
   -5.6050   -6.2730  -24.4020 H   0  0  0  0  0  0  0  0  0  0  0  0
   -7.4060   -8.2340  -25.8860 H   0  0  0  0  0  0  0  0  0  0  0  0
   -5.5910   -8.2880  -27.5390 H   0  0  0  0  0  0  0  0  0  0  0  0
   -4.8940   -8.5550  -25.9130 H   0  0  0  0  0  0  0  0  0  0  0  0
   -4.7340   -6.9900  -26.6870 H   0  0  0  0  0  0  0  0  0  0  0  0
  1  2  1  0  0  0  0
  1 50  1  0  0  0  0
  1 51  1  0  0  0  0
  1 52  1  0  0  0  0
  2  3  1  0  0  0  0
  2  7  1  0  0  0  0
  2 49  1  0  0  0  0
  3  4  1  0  0  0  0
  3  5  1  0  0  0  0
  3  6  1  0  0  0  0
  7  8  1  0  0  0  0
  7 47  1  0  0  0  0
  7 48  1  0  0  0  0
  8  9  1  0  0  0  0
  8 13  1  0  0  0  0
  8 38  1  0  0  0  0
  9 10  1  0  0  0  0
  9 11  1  0  0  0  0
  9 12  1  0  0  0  0
 13 14  1  0  0  0  0
 13 45  1  0  0  0  0
 13 46  1  0  0  0  0
 14 15  1  0  0  0  0
 14 43  1  0  0  0  0
 14 44  1  0  0  0  0
 15 16  1  0  0  0  0
 15 37  1  0  0  0  0
 16 17  2  0  0  0  0
 16 18  1  0  0  0  0
 18 19  1  0  0  0  0
 18 35  1  0  0  0  0
 18 36  1  0  0  0  0
 19 20  2  0  0  0  0
 19 28  1  0  0  0  0
 20 21  1  0  0  0  0
 20 34  1  0  0  0  0
 21 22  2  0  0  0  0
 22 23  1  0  0  0  0
 22 33  1  0  0  0  0
 23 24  2  0  0  0  0
 23 28  1  0  0  0  0
 24 25  1  0  0  0  0
 24 32  1  0  0  0  0
 25 26  2  0  0  0  0
 25 31  1  0  0  0  0
 26 27  1  0  0  0  0
 26 30  1  0  0  0  0
 27 28  2  0  0  0  0
 27 29  1  0  0  0  0
 37 38  1  0  0  0  0
 37 41  1  0  0  0  0
 37 42  1  0  0  0  0
 38 39  1  0  0  0  0
 38 40  1  0  0  0  0
M  END
>  <MODEL>
       2

$$$$
best_conformers_70.pdb
 OpenBabel01292518153D

 52 54  0  0  0  0  0  0  0  0999 V2000
   -7.4190   -6.3550  -26.6370 C   0  0  0  0  0  0  0  0  0  0  0  0
   -6.7470   -7.4660  -25.8430 C   0  0  0  0  0  0  0  0  0  0  0  0
   -5.4630   -7.9440  -26.5400 C   0  0  0  0  0  0  0  0  0  0  0  0
   -4.7520   -7.1100  -26.6820 H   0  0  0  0  0  0  0  0  0  0  0  0
   -4.9660   -8.6820  -25.8990 H   0  0  0  0  0  0  0  0  0  0  0  0
   -5.6640   -8.4110  -27.5150 H   0  0  0  0  0  0  0  0  0  0  0  0
   -6.3610   -7.1410  -24.3940 C   0  0  0  0  0  0  0  0  0  0  0  0
   -7.4510   -6.7830  -23.3550 C   0  0  0  0  0  0  0  0  0  0  0  0
   -8.6030   -7.7940  -23.4230 C   0  0  0  0  0  0  0  0  0  0  0  0
   -9.1550   -7.7370  -24.3690 H   0  0  0  0  0  0  0  0  0  0  0  0
   -9.3020   -7.6410  -22.5930 H   0  0  0  0  0  0  0  0  0  0  0  0
   -8.2060   -8.8120  -23.3290 H   0  0  0  0  0  0  0  0  0  0  0  0
   -7.9090   -5.3170  -23.5960 C   0  0  0  0  0  0  0  0  0  0  0  0
   -7.8800   -4.4500  -22.3400 C   0  0  0  0  0  0  0  0  0  0  0  0
   -6.5630   -4.5140  -21.6970 N   0  0  0  0  0  0  0  0  0  0  0  0
   -5.9470   -3.4580  -21.0980 C   0  0  0  0  0  0  0  0  0  0  0  0
   -4.8170   -3.5410  -20.6400 O   0  0  0  0  0  0  0  0  0  0  0  0
   -6.7720   -2.1730  -20.9800 C   0  0  0  0  0  0  0  0  0  0  0  0
   -6.1660   -1.2390  -19.9920 C   0  0  0  0  0  0  0  0  0  0  0  0
   -6.5520   -1.3250  -18.6820 C   0  0  0  0  0  0  0  0  0  0  0  0
   -6.0710   -0.5630  -17.6690 N   0  0  0  0  0  0  0  0  0  0  0  0
   -5.1460    0.3140  -17.9890 C   0  0  0  0  0  0  0  0  0  0  0  0
   -4.6310    0.4950  -19.3040 C   0  0  0  0  0  0  0  0  0  0  0  0
   -3.6470    1.4720  -19.6040 C   0  0  0  0  0  0  0  0  0  0  0  0
   -3.1870    1.6240  -20.8820 C   0  0  0  0  0  0  0  0  0  0  0  0
   -3.6740    0.7950  -21.9190 C   0  0  0  0  0  0  0  0  0  0  0  0
   -4.6190   -0.1660  -21.6540 C   0  0  0  0  0  0  0  0  0  0  0  0
   -5.1390   -0.3190  -20.3410 C   0  0  0  0  0  0  0  0  0  0  0  0
   -4.9710   -0.8080  -22.4570 H   0  0  0  0  0  0  0  0  0  0  0  0
   -3.3070    0.9350  -22.9320 H   0  0  0  0  0  0  0  0  0  0  0  0
   -2.4490    2.3880  -21.1120 H   0  0  0  0  0  0  0  0  0  0  0  0
   -3.2810    2.1070  -18.7990 H   0  0  0  0  0  0  0  0  0  0  0  0
   -4.7610    0.9360  -17.1810 H   0  0  0  0  0  0  0  0  0  0  0  0
   -7.3110   -2.0560  -18.4050 H   0  0  0  0  0  0  0  0  0  0  0  0
   -7.7910   -2.4280  -20.6540 H   0  0  0  0  0  0  0  0  0  0  0  0
   -6.8590   -1.7060  -21.9670 H   0  0  0  0  0  0  0  0  0  0  0  0
   -5.8320   -5.7810  -21.6860 C   0  0  0  0  0  0  0  0  0  0  0  0
   -6.7970   -6.9190  -21.9540 C   0  0  0  0  0  0  0  0  0  0  0  0
   -6.2630   -7.8750  -21.8950 H   0  0  0  0  0  0  0  0  0  0  0  0
   -7.5520   -6.9420  -21.1530 H   0  0  0  0  0  0  0  0  0  0  0  0
   -5.0070   -5.7650  -22.4170 H   0  0  0  0  0  0  0  0  0  0  0  0
   -5.3530   -5.9040  -20.7120 H   0  0  0  0  0  0  0  0  0  0  0  0
   -8.6810   -4.7510  -21.6520 H   0  0  0  0  0  0  0  0  0  0  0  0
   -8.0900   -3.4180  -22.6350 H   0  0  0  0  0  0  0  0  0  0  0  0
   -8.9170   -5.2870  -24.0260 H   0  0  0  0  0  0  0  0  0  0  0  0
   -7.2410   -4.8300  -24.3250 H   0  0  0  0  0  0  0  0  0  0  0  0
   -5.6040   -6.3370  -24.4050 H   0  0  0  0  0  0  0  0  0  0  0  0
   -5.8500   -8.0430  -24.0350 H   0  0  0  0  0  0  0  0  0  0  0  0
   -7.4770   -8.2860  -25.8420 H   0  0  0  0  0  0  0  0  0  0  0  0
   -7.6670   -6.7270  -27.6360 H   0  0  0  0  0  0  0  0  0  0  0  0
   -8.3580   -6.0110  -26.1890 H   0  0  0  0  0  0  0  0  0  0  0  0
   -6.7460   -5.4990  -26.7570 H   0  0  0  0  0  0  0  0  0  0  0  0
  1  2  1  0  0  0  0
  1 50  1  0  0  0  0
  1 51  1  0  0  0  0
  1 52  1  0  0  0  0
  2  3  1  0  0  0  0
  2  7  1  0  0  0  0
  2 49  1  0  0  0  0
  3  4  1  0  0  0  0
  3  5  1  0  0  0  0
  3  6  1  0  0  0  0
  7  8  1  0  0  0  0
  7 47  1  0  0  0  0
  7 48  1  0  0  0  0
  8  9  1  0  0  0  0
  8 13  1  0  0  0  0
  8 38  1  0  0  0  0
  9 10  1  0  0  0  0
  9 11  1  0  0  0  0
  9 12  1  0  0  0  0
 13 14  1  0  0  0  0
 13 45  1  0  0  0  0
 13 46  1  0  0  0  0
 14 15  1  0  0  0  0
 14 43  1  0  0  0  0
 14 44  1  0  0  0  0
 15 16  1  0  0  0  0
 15 37  1  0  0  0  0
 16 17  2  0  0  0  0
 16 18  1  0  0  0  0
 18 19  1  0  0  0  0
 18 35  1  0  0  0  0
 18 36  1  0  0  0  0
 19 20  2  0  0  0  0
 19 28  1  0  0  0  0
 20 21  1  0  0  0  0
 20 34  1  0  0  0  0
 21 22  2  0  0  0  0
 22 23  1  0  0  0  0
 22 33  1  0  0  0  0
 23 24  2  0  0  0  0
 23 28  1  0  0  0  0
 24 25  1  0  0  0  0
 24 32  1  0  0  0  0
 25 26  2  0  0  0  0
 25 31  1  0  0  0  0
 26 27  1  0  0  0  0
 26 30  1  0  0  0  0
 27 28  2  0  0  0  0
 27 29  1  0  0  0  0
 37 38  1  0  0  0  0
 37 41  1  0  0  0  0
 37 42  1  0  0  0  0
 38 39  1  0  0  0  0
 38 40  1  0  0  0  0
M  END
>  <MODEL>
       3

$$$$
best_conformers_70.pdb
 OpenBabel01292518153D

 52 54  0  0  0  0  0  0  0  0999 V2000
   -7.4410   -6.3200  -26.6470 C   0  0  0  0  0  0  0  0  0  0  0  0
   -6.7430   -7.4200  -25.8500 C   0  0  0  0  0  0  0  0  0  0  0  0
   -5.4470   -7.8680  -26.5390 C   0  0  0  0  0  0  0  0  0  0  0  0
   -4.7590   -7.0170  -26.6770 H   0  0  0  0  0  0  0  0  0  0  0  0
   -4.9370   -8.5780  -25.8790 H   0  0  0  0  0  0  0  0  0  0  0  0
   -5.6290   -8.3590  -27.5060 H   0  0  0  0  0  0  0  0  0  0  0  0
   -6.3670   -7.1210  -24.3880 C   0  0  0  0  0  0  0  0  0  0  0  0
   -7.4630   -6.7760  -23.3540 C   0  0  0  0  0  0  0  0  0  0  0  0
   -8.6110   -7.7880  -23.4460 C   0  0  0  0  0  0  0  0  0  0  0  0
   -9.1600   -7.6960  -24.3920 H   0  0  0  0  0  0  0  0  0  0  0  0
   -9.3150   -7.6660  -22.6170 H   0  0  0  0  0  0  0  0  0  0  0  0
   -8.2160   -8.8090  -23.3710 H   0  0  0  0  0  0  0  0  0  0  0  0
   -6.8130   -6.9160  -21.9550 C   0  0  0  0  0  0  0  0  0  0  0  0
   -5.8490   -5.7800  -21.6790 C   0  0  0  0  0  0  0  0  0  0  0  0
   -6.5780   -4.5140  -21.6890 N   0  0  0  0  0  0  0  0  0  0  0  0
   -5.9520   -3.4630  -21.0930 C   0  0  0  0  0  0  0  0  0  0  0  0
   -4.8210   -3.5540  -20.6300 O   0  0  0  0  0  0  0  0  0  0  0  0
   -6.7650   -2.1760  -20.9810 C   0  0  0  0  0  0  0  0  0  0  0  0
   -6.1630   -1.2410  -19.9930 C   0  0  0  0  0  0  0  0  0  0  0  0
   -6.5520   -1.3260  -18.6830 C   0  0  0  0  0  0  0  0  0  0  0  0
   -6.0710   -0.5640  -17.6700 N   0  0  0  0  0  0  0  0  0  0  0  0
   -5.1450    0.3130  -17.9900 C   0  0  0  0  0  0  0  0  0  0  0  0
   -4.6290    0.4920  -19.3050 C   0  0  0  0  0  0  0  0  0  0  0  0
   -3.6460    1.4720  -19.6040 C   0  0  0  0  0  0  0  0  0  0  0  0
   -3.1870    1.6230  -20.8830 C   0  0  0  0  0  0  0  0  0  0  0  0
   -3.6720    0.7970  -21.9200 C   0  0  0  0  0  0  0  0  0  0  0  0
   -4.6170   -0.1680  -21.6560 C   0  0  0  0  0  0  0  0  0  0  0  0
   -5.1360   -0.3220  -20.3410 C   0  0  0  0  0  0  0  0  0  0  0  0
   -4.9710   -0.8050  -22.4590 H   0  0  0  0  0  0  0  0  0  0  0  0
   -3.3080    0.9390  -22.9340 H   0  0  0  0  0  0  0  0  0  0  0  0
   -2.4480    2.3890  -21.1120 H   0  0  0  0  0  0  0  0  0  0  0  0
   -3.2840    2.1080  -18.7990 H   0  0  0  0  0  0  0  0  0  0  0  0
   -4.7590    0.9380  -17.1850 H   0  0  0  0  0  0  0  0  0  0  0  0
   -7.3120   -2.0560  -18.4070 H   0  0  0  0  0  0  0  0  0  0  0  0
   -6.8510   -1.7190  -21.9740 H   0  0  0  0  0  0  0  0  0  0  0  0
   -7.7820   -2.4340  -20.6550 H   0  0  0  0  0  0  0  0  0  0  0  0
   -7.8900   -4.4400  -22.3430 C   0  0  0  0  0  0  0  0  0  0  0  0
   -7.9220   -5.3090  -23.5980 C   0  0  0  0  0  0  0  0  0  0  0  0
   -7.2530   -4.8250  -24.3300 H   0  0  0  0  0  0  0  0  0  0  0  0
   -8.9300   -5.2800  -24.0300 H   0  0  0  0  0  0  0  0  0  0  0  0
   -8.0900   -3.4070  -22.6420 H   0  0  0  0  0  0  0  0  0  0  0  0
   -8.6980   -4.7350  -21.6610 H   0  0  0  0  0  0  0  0  0  0  0  0
   -5.3730   -5.9030  -20.7040 H   0  0  0  0  0  0  0  0  0  0  0  0
   -5.0240   -5.7540  -22.4070 H   0  0  0  0  0  0  0  0  0  0  0  0
   -7.5720   -6.9300  -21.1610 H   0  0  0  0  0  0  0  0  0  0  0  0
   -6.2850   -7.8760  -21.8880 H   0  0  0  0  0  0  0  0  0  0  0  0
   -5.6050   -6.3220  -24.3770 H   0  0  0  0  0  0  0  0  0  0  0  0
   -5.8590   -8.0320  -24.0430 H   0  0  0  0  0  0  0  0  0  0  0  0
   -7.4450   -8.2620  -25.8600 H   0  0  0  0  0  0  0  0  0  0  0  0
   -6.7960   -5.4460  -26.7970 H   0  0  0  0  0  0  0  0  0  0  0  0
   -8.3760   -5.9820  -26.1870 H   0  0  0  0  0  0  0  0  0  0  0  0
   -7.7020   -6.7010  -27.6430 H   0  0  0  0  0  0  0  0  0  0  0  0
  1  2  1  0  0  0  0
  1 50  1  0  0  0  0
  1 51  1  0  0  0  0
  1 52  1  0  0  0  0
  2  3  1  0  0  0  0
  2  7  1  0  0  0  0
  2 49  1  0  0  0  0
  3  4  1  0  0  0  0
  3  5  1  0  0  0  0
  3  6  1  0  0  0  0
  7  8  1  0  0  0  0
  7 47  1  0  0  0  0
  7 48  1  0  0  0  0
  8  9  1  0  0  0  0
  8 13  1  0  0  0  0
  8 38  1  0  0  0  0
  9 10  1  0  0  0  0
  9 11  1  0  0  0  0
  9 12  1  0  0  0  0
 13 14  1  0  0  0  0
 13 45  1  0  0  0  0
 13 46  1  0  0  0  0
 14 15  1  0  0  0  0
 14 43  1  0  0  0  0
 14 44  1  0  0  0  0
 15 16  1  0  0  0  0
 15 37  1  0  0  0  0
 16 17  2  0  0  0  0
 16 18  1  0  0  0  0
 18 19  1  0  0  0  0
 18 35  1  0  0  0  0
 18 36  1  0  0  0  0
 19 20  2  0  0  0  0
 19 28  1  0  0  0  0
 20 21  1  0  0  0  0
 20 34  1  0  0  0  0
 21 22  2  0  0  0  0
 22 23  1  0  0  0  0
 22 33  1  0  0  0  0
 23 24  2  0  0  0  0
 23 28  1  0  0  0  0
 24 25  1  0  0  0  0
 24 32  1  0  0  0  0
 25 26  2  0  0  0  0
 25 31  1  0  0  0  0
 26 27  1  0  0  0  0
 26 30  1  0  0  0  0
 27 28  2  0  0  0  0
 27 29  1  0  0  0  0
 37 38  1  0  0  0  0
 37 41  1  0  0  0  0
 37 42  1  0  0  0  0
 38 39  1  0  0  0  0
 38 40  1  0  0  0  0
M  END
>  <MODEL>
       4

$$$$
best_conformers_70.pdb
 OpenBabel01292518153D

 52 54  0  0  0  0  0  0  0  0999 V2000
   -7.2110   -5.7360  -28.2910 C   0  0  0  0  0  0  0  0  0  0  0  0
   -5.8680   -5.7680  -27.5580 C   0  0  0  0  0  0  0  0  0  0  0  0
   -4.8480   -6.5620  -28.3790 C   0  0  0  0  0  0  0  0  0  0  0  0
   -3.8590   -6.5650  -27.9110 H   0  0  0  0  0  0  0  0  0  0  0  0
   -5.1630   -7.6040  -28.5030 H   0  0  0  0  0  0  0  0  0  0  0  0
   -4.7320   -6.1380  -29.3820 H   0  0  0  0  0  0  0  0  0  0  0  0
   -5.9400   -6.3330  -26.1280 C   0  0  0  0  0  0  0  0  0  0  0  0
   -6.7510   -5.5910  -25.0250 C   0  0  0  0  0  0  0  0  0  0  0  0
   -8.2620   -5.8460  -25.1770 C   0  0  0  0  0  0  0  0  0  0  0  0
   -8.8170   -5.4330  -24.3270 H   0  0  0  0  0  0  0  0  0  0  0  0
   -8.4790   -6.9200  -25.2140 H   0  0  0  0  0  0  0  0  0  0  0  0
   -8.6860   -5.3920  -26.0760 H   0  0  0  0  0  0  0  0  0  0  0  0
   -6.3180   -6.1380  -23.6300 C   0  0  0  0  0  0  0  0  0  0  0  0
   -5.3560   -5.2190  -22.8790 C   0  0  0  0  0  0  0  0  0  0  0  0
   -5.9730   -3.9110  -22.6470 N   0  0  0  0  0  0  0  0  0  0  0  0
   -5.7950   -3.2900  -21.4350 C   0  0  0  0  0  0  0  0  0  0  0  0
   -4.9400   -3.6600  -20.6450 O   0  0  0  0  0  0  0  0  0  0  0  0
   -6.7460   -2.1310  -21.0360 C   0  0  0  0  0  0  0  0  0  0  0  0
   -6.1390   -1.2110  -20.0020 C   0  0  0  0  0  0  0  0  0  0  0  0
   -6.5050   -1.2810  -18.6810 C   0  0  0  0  0  0  0  0  0  0  0  0
   -6.0140   -0.5110  -17.6710 N   0  0  0  0  0  0  0  0  0  0  0  0
   -5.0960    0.3700  -17.9980 C   0  0  0  0  0  0  0  0  0  0  0  0
   -4.6050    0.5530  -19.3220 C   0  0  0  0  0  0  0  0  0  0  0  0
   -3.6060    1.5170  -19.6270 C   0  0  0  0  0  0  0  0  0  0  0  0
   -3.1510    1.6680  -20.9110 C   0  0  0  0  0  0  0  0  0  0  0  0
   -3.6770    0.8600  -21.9430 C   0  0  0  0  0  0  0  0  0  0  0  0
   -4.6440   -0.0770  -21.6740 C   0  0  0  0  0  0  0  0  0  0  0  0
   -5.1370   -0.2570  -20.3530 C   0  0  0  0  0  0  0  0  0  0  0  0
   -5.0340   -0.6880  -22.4830 H   0  0  0  0  0  0  0  0  0  0  0  0
   -3.3140    0.9880  -22.9590 H   0  0  0  0  0  0  0  0  0  0  0  0
   -2.3910    2.4080  -21.1460 H   0  0  0  0  0  0  0  0  0  0  0  0
   -3.2090    2.1370  -18.8260 H   0  0  0  0  0  0  0  0  0  0  0  0
   -4.6870    0.9920  -17.2000 H   0  0  0  0  0  0  0  0  0  0  0  0
   -7.2610   -1.9990  -18.3680 H   0  0  0  0  0  0  0  0  0  0  0  0
   -7.0950   -1.5460  -21.8950 H   0  0  0  0  0  0  0  0  0  0  0  0
   -7.6450   -2.5890  -20.5980 H   0  0  0  0  0  0  0  0  0  0  0  0
   -6.7170   -3.3310  -23.7620 C   0  0  0  0  0  0  0  0  0  0  0  0
   -6.4570   -4.0770  -25.0730 C   0  0  0  0  0  0  0  0  0  0  0  0
   -7.0520   -3.6130  -25.8670 H   0  0  0  0  0  0  0  0  0  0  0  0
   -5.4140   -3.9030  -25.3660 H   0  0  0  0  0  0  0  0  0  0  0  0
   -6.4120   -2.2870  -23.9080 H   0  0  0  0  0  0  0  0  0  0  0  0
   -7.7910   -3.3120  -23.5470 H   0  0  0  0  0  0  0  0  0  0  0  0
   -5.0940   -5.6510  -21.9140 H   0  0  0  0  0  0  0  0  0  0  0  0
   -4.4180   -5.1220  -23.4360 H   0  0  0  0  0  0  0  0  0  0  0  0
   -5.8790   -7.1370  -23.7300 H   0  0  0  0  0  0  0  0  0  0  0  0
   -7.1930   -6.2780  -22.9840 H   0  0  0  0  0  0  0  0  0  0  0  0
   -6.3120   -7.3660  -26.1850 H   0  0  0  0  0  0  0  0  0  0  0  0
   -4.9070   -6.4290  -25.7650 H   0  0  0  0  0  0  0  0  0  0  0  0
   -5.4920   -4.7420  -27.5010 H   0  0  0  0  0  0  0  0  0  0  0  0
   -7.7880   -6.6470  -28.1020 H   0  0  0  0  0  0  0  0  0  0  0  0
   -7.8270   -4.8830  -27.9940 H   0  0  0  0  0  0  0  0  0  0  0  0
   -7.0670   -5.6650  -29.3730 H   0  0  0  0  0  0  0  0  0  0  0  0
  1  2  1  0  0  0  0
  1 50  1  0  0  0  0
  1 51  1  0  0  0  0
  1 52  1  0  0  0  0
  2  3  1  0  0  0  0
  2  7  1  0  0  0  0
  2 49  1  0  0  0  0
  3  4  1  0  0  0  0
  3  5  1  0  0  0  0
  3  6  1  0  0  0  0
  7  8  1  0  0  0  0
  7 47  1  0  0  0  0
  7 48  1  0  0  0  0
  8  9  1  0  0  0  0
  8 13  1  0  0  0  0
  8 38  1  0  0  0  0
  9 10  1  0  0  0  0
  9 11  1  0  0  0  0
  9 12  1  0  0  0  0
 13 14  1  0  0  0  0
 13 45  1  0  0  0  0
 13 46  1  0  0  0  0
 14 15  1  0  0  0  0
 14 43  1  0  0  0  0
 14 44  1  0  0  0  0
 15 16  1  0  0  0  0
 15 37  1  0  0  0  0
 16 17  2  0  0  0  0
 16 18  1  0  0  0  0
 18 19  1  0  0  0  0
 18 35  1  0  0  0  0
 18 36  1  0  0  0  0
 19 20  2  0  0  0  0
 19 28  1  0  0  0  0
 20 21  1  0  0  0  0
 20 34  1  0  0  0  0
 21 22  2  0  0  0  0
 22 23  1  0  0  0  0
 22 33  1  0  0  0  0
 23 24  2  0  0  0  0
 23 28  1  0  0  0  0
 24 25  1  0  0  0  0
 24 32  1  0  0  0  0
 25 26  2  0  0  0  0
 25 31  1  0  0  0  0
 26 27  1  0  0  0  0
 26 30  1  0  0  0  0
 27 28  2  0  0  0  0
 27 29  1  0  0  0  0
 37 38  1  0  0  0  0
 37 41  1  0  0  0  0
 37 42  1  0  0  0  0
 38 39  1  0  0  0  0
 38 40  1  0  0  0  0
M  END
>  <MODEL>
       5

$$$$
