best_conformers_30.pdb
 OpenBabel01292518153D

 58 63  0  0  1  0  0  0  0  0999 V2000
   -6.9330   -5.1770  -22.9200 C   0  0  0  0  0  0  0  0  0  0  0  0
   -7.4570   -3.9770  -22.1290 C   0  0  1  0  0  0  0  0  0  0  0  0
   -6.4570   -3.4540  -21.0810 C   0  0  0  0  0  0  0  0  0  0  0  0
   -6.7790   -2.0430  -20.9660 N   0  0  0  0  0  0  0  0  0  0  0  0
   -6.1740   -1.1890  -20.0090 C   0  0  0  0  0  0  0  0  0  0  0  0
   -6.5320   -1.2930  -18.6890 C   0  0  0  0  0  0  0  0  0  0  0  0
   -6.0220   -0.5330  -17.6900 N   0  0  0  0  0  0  0  0  0  0  0  0
   -5.1070    0.3500  -18.0170 C   0  0  0  0  0  0  0  0  0  0  0  0
   -4.6160    0.5410  -19.3410 C   0  0  0  0  0  0  0  0  0  0  0  0
   -3.6110    1.5030  -19.6370 C   0  0  0  0  0  0  0  0  0  0  0  0
   -3.1410    1.6480  -20.9130 C   0  0  0  0  0  0  0  0  0  0  0  0
   -3.6470    0.8310  -21.9500 C   0  0  0  0  0  0  0  0  0  0  0  0
   -4.6190   -0.1010  -21.6890 C   0  0  0  0  0  0  0  0  0  0  0  0
   -5.1500   -0.2560  -20.3770 C   0  0  0  0  0  0  0  0  0  0  0  0
   -5.0000   -0.7170  -22.4970 H   0  0  0  0  0  0  0  0  0  0  0  0
   -3.2770    0.9570  -22.9630 H   0  0  0  0  0  0  0  0  0  0  0  0
   -2.3850    2.3950  -21.1380 H   0  0  0  0  0  0  0  0  0  0  0  0
   -3.2360    2.1230  -18.8270 H   0  0  0  0  0  0  0  0  0  0  0  0
   -4.7110    0.9660  -17.2110 H   0  0  0  0  0  0  0  0  0  0  0  0
   -7.2810   -2.0240  -18.3890 H   0  0  0  0  0  0  0  0  0  0  0  0
   -7.5370   -1.5560  -22.0050 C   0  0  0  0  0  0  0  0  0  0  0  0
   -7.8670   -0.3910  -22.1230 O   0  0  0  0  0  0  0  0  0  0  0  0
   -7.8770   -2.7120  -22.9640 C   0  0  1  0  0  0  0  0  0  0  0  0
   -7.0850   -2.4750  -24.2640 C   0  0  0  0  0  0  0  0  0  0  0  0
   -7.5330   -3.2860  -25.3870 N   0  0  0  0  0  0  0  0  0  0  0  0
   -6.5320   -3.6000  -26.4020 C   0  0  0  0  0  0  0  0  0  0  0  0
   -5.8150   -4.9060  -26.1550 C   0  0  0  0  0  0  0  0  0  0  0  0
   -6.4360   -6.0890  -26.4210 C   0  0  0  0  0  0  0  0  0  0  0  0
   -5.7650   -7.3460  -26.1830 C   0  0  0  0  0  0  0  0  0  0  0  0
   -6.1530   -8.4750  -26.3890 O   0  0  0  0  0  0  0  0  0  0  0  0
   -4.4880   -7.1630  -25.6410 N   0  0  0  0  0  0  0  0  0  0  0  0
   -3.9270   -5.9430  -25.4420 C   0  0  0  0  0  0  0  0  0  0  0  0
   -4.5250   -4.8210  -25.6700 N   0  0  0  0  0  0  0  0  0  0  0  0
   -2.9090   -5.9820  -25.0580 H   0  0  0  0  0  0  0  0  0  0  0  0
   -3.9840   -8.0170  -25.4420 H   0  0  0  0  0  0  0  0  0  0  0  0
   -7.4430   -6.0980  -26.8120 H   0  0  0  0  0  0  0  0  0  0  0  0
   -7.0550   -3.6450  -27.3610 H   0  0  0  0  0  0  0  0  0  0  0  0
   -5.7820   -2.8030  -26.4200 H   0  0  0  0  0  0  0  0  0  0  0  0
   -8.8500   -3.5800  -25.6330 C   0  0  0  0  0  0  0  0  0  0  0  0
   -9.2050   -4.1450  -26.6580 O   0  0  0  0  0  0  0  0  0  0  0  0
   -9.8120   -3.1860  -24.5410 C   0  0  0  0  0  0  0  0  0  0  0  0
  -11.1810   -3.3630  -24.7520 C   0  0  0  0  0  0  0  0  0  0  0  0
  -12.0750   -3.0920  -23.7280 C   0  0  0  0  0  0  0  0  0  0  0  0
  -11.6050   -2.5930  -22.5270 C   0  0  0  0  0  0  0  0  0  0  0  0
  -12.5110   -2.2780  -21.5930 F   0  0  0  0  0  0  0  0  0  0  0  0
  -10.2630   -2.4270  -22.2750 C   0  0  0  0  0  0  0  0  0  0  0  0
   -9.3530   -2.7330  -23.2950 C   0  0  0  0  0  0  0  0  0  0  0  0
   -9.9340   -2.0940  -21.2940 H   0  0  0  0  0  0  0  0  0  0  0  0
  -13.1450   -3.2550  -23.7660 H   0  0  0  0  0  0  0  0  0  0  0  0
  -11.5060   -3.7110  -25.7280 H   0  0  0  0  0  0  0  0  0  0  0  0
   -6.0270   -2.7270  -24.1120 H   0  0  0  0  0  0  0  0  0  0  0  0
   -7.1870   -1.4010  -24.4920 H   0  0  0  0  0  0  0  0  0  0  0  0
   -6.5450   -3.9370  -20.1030 H   0  0  0  0  0  0  0  0  0  0  0  0
   -5.4190   -3.5990  -21.4210 H   0  0  0  0  0  0  0  0  0  0  0  0
   -8.3810   -4.2730  -21.6100 H   0  0  0  0  0  0  0  0  0  0  0  0
   -6.7660   -6.0320  -22.2550 H   0  0  0  0  0  0  0  0  0  0  0  0
   -7.6510   -5.4740  -23.6930 H   0  0  0  0  0  0  0  0  0  0  0  0
   -5.9840   -4.9430  -23.4170 H   0  0  0  0  0  0  0  0  0  0  0  0
  1  2  1  0  0  0  0
  1 56  1  0  0  0  0
  1 57  1  0  0  0  0
  1 58  1  0  0  0  0
  2  3  1  0  0  0  0
  2 23  1  0  0  0  0
  2 55  1  1  0  0  0
  3  4  1  0  0  0  0
  3 53  1  0  0  0  0
  3 54  1  0  0  0  0
  4  5  1  0  0  0  0
  4 21  1  0  0  0  0
  5  6  2  0  0  0  0
  5 14  1  0  0  0  0
  6  7  1  0  0  0  0
  6 20  1  0  0  0  0
  7  8  2  0  0  0  0
  8  9  1  0  0  0  0
  8 19  1  0  0  0  0
  9 10  2  0  0  0  0
  9 14  1  0  0  0  0
 10 11  1  0  0  0  0
 10 18  1  0  0  0  0
 11 12  2  0  0  0  0
 11 17  1  0  0  0  0
 12 13  1  0  0  0  0
 12 16  1  0  0  0  0
 13 14  2  0  0  0  0
 13 15  1  0  0  0  0
 21 22  2  0  0  0  0
 23 21  1  1  0  0  0
 23 24  1  0  0  0  0
 23 47  1  0  0  0  0
 24 25  1  0  0  0  0
 24 51  1  0  0  0  0
 24 52  1  0  0  0  0
 25 26  1  0  0  0  0
 25 39  1  0  0  0  0
 26 27  1  0  0  0  0
 26 37  1  0  0  0  0
 26 38  1  0  0  0  0
 27 28  2  0  0  0  0
 27 33  1  0  0  0  0
 28 29  1  0  0  0  0
 28 36  1  0  0  0  0
 29 30  2  0  0  0  0
 29 31  1  0  0  0  0
 31 32  1  0  0  0  0
 31 35  1  0  0  0  0
 32 33  2  0  0  0  0
 32 34  1  0  0  0  0
 39 40  2  0  0  0  0
 39 41  1  0  0  0  0
 41 42  2  0  0  0  0
 41 47  1  0  0  0  0
 42 43  1  0  0  0  0
 42 50  1  0  0  0  0
 43 44  2  0  0  0  0
 43 49  1  0  0  0  0
 44 45  1  0  0  0  0
 44 46  1  0  0  0  0
 46 47  2  0  0  0  0
 46 48  1  0  0  0  0
M  END
>  <MODEL>
       1

$$$$
best_conformers_30.pdb
 OpenBabel01292518153D

 58 63  0  0  1  0  0  0  0  0999 V2000
   -6.9880   -5.1770  -22.9010 C   0  0  0  0  0  0  0  0  0  0  0  0
   -7.5010   -3.9700  -22.1130 C   0  0  1  0  0  0  0  0  0  0  0  0
   -6.4850   -3.4520  -21.0760 C   0  0  0  0  0  0  0  0  0  0  0  0
   -6.7860   -2.0360  -20.9690 N   0  0  0  0  0  0  0  0  0  0  0  0
   -6.1760   -1.1870  -20.0110 C   0  0  0  0  0  0  0  0  0  0  0  0
   -6.5310   -1.2920  -18.6900 C   0  0  0  0  0  0  0  0  0  0  0  0
   -6.0200   -0.5320  -17.6900 N   0  0  0  0  0  0  0  0  0  0  0  0
   -5.1060    0.3520  -18.0160 C   0  0  0  0  0  0  0  0  0  0  0  0
   -4.6140    0.5420  -19.3390 C   0  0  0  0  0  0  0  0  0  0  0  0
   -3.6100    1.5040  -19.6370 C   0  0  0  0  0  0  0  0  0  0  0  0
   -3.1420    1.6490  -20.9140 C   0  0  0  0  0  0  0  0  0  0  0  0
   -3.6480    0.8320  -21.9500 C   0  0  0  0  0  0  0  0  0  0  0  0
   -4.6180   -0.1010  -21.6870 C   0  0  0  0  0  0  0  0  0  0  0  0
   -5.1490   -0.2560  -20.3760 C   0  0  0  0  0  0  0  0  0  0  0  0
   -5.0010   -0.7180  -22.4930 H   0  0  0  0  0  0  0  0  0  0  0  0
   -3.2790    0.9570  -22.9640 H   0  0  0  0  0  0  0  0  0  0  0  0
   -2.3850    2.3950  -21.1400 H   0  0  0  0  0  0  0  0  0  0  0  0
   -3.2330    2.1240  -18.8280 H   0  0  0  0  0  0  0  0  0  0  0  0
   -4.7090    0.9680  -17.2100 H   0  0  0  0  0  0  0  0  0  0  0  0
   -7.2810   -2.0200  -18.3860 H   0  0  0  0  0  0  0  0  0  0  0  0
   -7.5470   -1.5440  -22.0050 C   0  0  0  0  0  0  0  0  0  0  0  0
   -7.8610   -0.3770  -22.1250 O   0  0  0  0  0  0  0  0  0  0  0  0
   -7.9110   -2.7050  -22.9540 C   0  0  1  0  0  0  0  0  0  0  0  0
   -7.1350   -2.4940  -24.2690 C   0  0  0  0  0  0  0  0  0  0  0  0
   -7.6010   -3.3320  -25.3690 N   0  0  0  0  0  0  0  0  0  0  0  0
   -6.6300   -3.7160  -26.3940 C   0  0  0  0  0  0  0  0  0  0  0  0
   -6.1580   -5.1490  -26.2970 C   0  0  0  0  0  0  0  0  0  0  0  0
   -4.9000   -5.4820  -25.8800 C   0  0  0  0  0  0  0  0  0  0  0  0
   -4.4980   -6.8690  -25.7290 C   0  0  0  0  0  0  0  0  0  0  0  0
   -3.4430   -7.3280  -25.3300 O   0  0  0  0  0  0  0  0  0  0  0  0
   -5.5310   -7.7390  -26.1060 N   0  0  0  0  0  0  0  0  0  0  0  0
   -6.7400   -7.3230  -26.5550 C   0  0  0  0  0  0  0  0  0  0  0  0
   -7.0850   -6.0870  -26.6770 N   0  0  0  0  0  0  0  0  0  0  0  0
   -7.4380   -8.1120  -26.8070 H   0  0  0  0  0  0  0  0  0  0  0  0
   -5.3190   -8.7230  -26.0370 H   0  0  0  0  0  0  0  0  0  0  0  0
   -4.1870   -4.7240  -25.5820 H   0  0  0  0  0  0  0  0  0  0  0  0
   -7.1060   -3.5690  -27.3680 H   0  0  0  0  0  0  0  0  0  0  0  0
   -5.7590   -3.0600  -26.3030 H   0  0  0  0  0  0  0  0  0  0  0  0
   -8.9340   -3.5370  -25.6210 C   0  0  0  0  0  0  0  0  0  0  0  0
   -9.3260   -4.0320  -26.6690 O   0  0  0  0  0  0  0  0  0  0  0  0
   -9.8700   -3.1420  -24.5130 C   0  0  0  0  0  0  0  0  0  0  0  0
  -11.2420   -3.2830  -24.7260 C   0  0  0  0  0  0  0  0  0  0  0  0
  -12.1260   -2.9900  -23.7020 C   0  0  0  0  0  0  0  0  0  0  0  0
  -11.6340   -2.5220  -22.4980 C   0  0  0  0  0  0  0  0  0  0  0  0
  -12.5470   -2.2160  -21.5700 F   0  0  0  0  0  0  0  0  0  0  0  0
  -10.2880   -2.3900  -22.2390 C   0  0  0  0  0  0  0  0  0  0  0  0
   -9.3910   -2.7100  -23.2680 C   0  0  0  0  0  0  0  0  0  0  0  0
   -9.9550   -2.0690  -21.2540 H   0  0  0  0  0  0  0  0  0  0  0  0
  -13.2030   -3.0970  -23.7420 H   0  0  0  0  0  0  0  0  0  0  0  0
  -11.5690   -3.6280  -25.7020 H   0  0  0  0  0  0  0  0  0  0  0  0
   -7.2310   -1.4220  -24.5080 H   0  0  0  0  0  0  0  0  0  0  0  0
   -6.0770   -2.7320  -24.1000 H   0  0  0  0  0  0  0  0  0  0  0  0
   -5.4520   -3.6200  -21.4190 H   0  0  0  0  0  0  0  0  0  0  0  0
   -6.5720   -3.9250  -20.0950 H   0  0  0  0  0  0  0  0  0  0  0  0
   -8.4250   -4.2540  -21.5890 H   0  0  0  0  0  0  0  0  0  0  0  0
   -7.6970   -5.4770  -23.6790 H   0  0  0  0  0  0  0  0  0  0  0  0
   -6.0370   -4.9370  -23.3860 H   0  0  0  0  0  0  0  0  0  0  0  0
   -6.8190   -6.0300  -22.2340 H   0  0  0  0  0  0  0  0  0  0  0  0
  1  2  1  0  0  0  0
  1 56  1  0  0  0  0
  1 57  1  0  0  0  0
  1 58  1  0  0  0  0
  2  3  1  0  0  0  0
  2 23  1  0  0  0  0
  2 55  1  1  0  0  0
  3  4  1  0  0  0  0
  3 53  1  0  0  0  0
  3 54  1  0  0  0  0
  4  5  1  0  0  0  0
  4 21  1  0  0  0  0
  5  6  2  0  0  0  0
  5 14  1  0  0  0  0
  6  7  1  0  0  0  0
  6 20  1  0  0  0  0
  7  8  2  0  0  0  0
  8  9  1  0  0  0  0
  8 19  1  0  0  0  0
  9 10  2  0  0  0  0
  9 14  1  0  0  0  0
 10 11  1  0  0  0  0
 10 18  1  0  0  0  0
 11 12  2  0  0  0  0
 11 17  1  0  0  0  0
 12 13  1  0  0  0  0
 12 16  1  0  0  0  0
 13 14  2  0  0  0  0
 13 15  1  0  0  0  0
 21 22  2  0  0  0  0
 23 21  1  1  0  0  0
 23 24  1  0  0  0  0
 23 47  1  0  0  0  0
 24 25  1  0  0  0  0
 24 51  1  0  0  0  0
 24 52  1  0  0  0  0
 25 26  1  0  0  0  0
 25 39  1  0  0  0  0
 26 27  1  0  0  0  0
 26 37  1  0  0  0  0
 26 38  1  0  0  0  0
 27 28  2  0  0  0  0
 27 33  1  0  0  0  0
 28 29  1  0  0  0  0
 28 36  1  0  0  0  0
 29 30  2  0  0  0  0
 29 31  1  0  0  0  0
 31 32  1  0  0  0  0
 31 35  1  0  0  0  0
 32 33  2  0  0  0  0
 32 34  1  0  0  0  0
 39 40  2  0  0  0  0
 39 41  1  0  0  0  0
 41 42  2  0  0  0  0
 41 47  1  0  0  0  0
 42 43  1  0  0  0  0
 42 50  1  0  0  0  0
 43 44  2  0  0  0  0
 43 49  1  0  0  0  0
 44 45  1  0  0  0  0
 44 46  1  0  0  0  0
 46 47  2  0  0  0  0
 46 48  1  0  0  0  0
M  END
>  <MODEL>
       2

$$$$
best_conformers_30.pdb
 OpenBabel01292518153D

 58 63  0  0  1  0  0  0  0  0999 V2000
   -6.9390   -5.1900  -22.8810 C   0  0  0  0  0  0  0  0  0  0  0  0
   -7.4320   -3.9710  -22.1090 C   0  0  1  0  0  0  0  0  0  0  0  0
   -6.4210   -3.4490  -21.0800 C   0  0  0  0  0  0  0  0  0  0  0  0
   -6.7550   -2.0460  -20.9590 N   0  0  0  0  0  0  0  0  0  0  0  0
   -6.1570   -1.1980  -20.0050 C   0  0  0  0  0  0  0  0  0  0  0  0
   -6.5290   -1.3070  -18.6900 C   0  0  0  0  0  0  0  0  0  0  0  0
   -6.0370   -0.5410  -17.6870 N   0  0  0  0  0  0  0  0  0  0  0  0
   -5.1230    0.3440  -18.0160 C   0  0  0  0  0  0  0  0  0  0  0  0
   -4.6270    0.5340  -19.3390 C   0  0  0  0  0  0  0  0  0  0  0  0
   -3.6250    1.4990  -19.6280 C   0  0  0  0  0  0  0  0  0  0  0  0
   -3.1460    1.6460  -20.9010 C   0  0  0  0  0  0  0  0  0  0  0  0
   -3.6420    0.8350  -21.9470 C   0  0  0  0  0  0  0  0  0  0  0  0
   -4.6130   -0.1000  -21.6960 C   0  0  0  0  0  0  0  0  0  0  0  0
   -5.1450   -0.2620  -20.3810 C   0  0  0  0  0  0  0  0  0  0  0  0
   -4.9850   -0.7090  -22.5160 H   0  0  0  0  0  0  0  0  0  0  0  0
   -3.2570    0.9610  -22.9560 H   0  0  0  0  0  0  0  0  0  0  0  0
   -2.3880    2.3940  -21.1180 H   0  0  0  0  0  0  0  0  0  0  0  0
   -3.2580    2.1170  -18.8140 H   0  0  0  0  0  0  0  0  0  0  0  0
   -4.7160    0.9600  -17.2140 H   0  0  0  0  0  0  0  0  0  0  0  0
   -7.2880   -2.0370  -18.4090 H   0  0  0  0  0  0  0  0  0  0  0  0
   -7.4850   -1.5490  -22.0100 C   0  0  0  0  0  0  0  0  0  0  0  0
   -7.8050   -0.3820  -22.1200 O   0  0  0  0  0  0  0  0  0  0  0  0
   -7.8260   -2.7070  -22.9600 C   0  0  1  0  0  0  0  0  0  0  0  0
   -7.0390   -2.4880  -24.2650 C   0  0  0  0  0  0  0  0  0  0  0  0
   -7.4880   -3.3600  -25.3360 N   0  0  0  0  0  0  0  0  0  0  0  0
   -6.4870   -3.8080  -26.2890 C   0  0  0  0  0  0  0  0  0  0  0  0
   -6.1640   -2.7870  -27.3460 C   0  0  0  0  0  0  0  0  0  0  0  0
   -5.2780   -1.7760  -27.1280 C   0  0  0  0  0  0  0  0  0  0  0  0
   -5.0290   -0.7760  -28.1440 C   0  0  0  0  0  0  0  0  0  0  0  0
   -4.2800    0.1810  -28.1050 O   0  0  0  0  0  0  0  0  0  0  0  0
   -5.7890   -1.0180  -29.3050 N   0  0  0  0  0  0  0  0  0  0  0  0
   -6.6270   -2.0750  -29.4480 C   0  0  0  0  0  0  0  0  0  0  0  0
   -6.8340   -2.9610  -28.5350 N   0  0  0  0  0  0  0  0  0  0  0  0
   -7.1320   -2.1330  -30.4090 H   0  0  0  0  0  0  0  0  0  0  0  0
   -5.6720   -0.3480  -30.0560 H   0  0  0  0  0  0  0  0  0  0  0  0
   -4.7280   -1.7030  -26.1940 H   0  0  0  0  0  0  0  0  0  0  0  0
   -6.8880   -4.6870  -26.7900 H   0  0  0  0  0  0  0  0  0  0  0  0
   -5.5820   -4.0700  -25.7250 H   0  0  0  0  0  0  0  0  0  0  0  0
   -8.8150   -3.5290  -25.6350 C   0  0  0  0  0  0  0  0  0  0  0  0
   -9.1980   -4.0110  -26.6950 O   0  0  0  0  0  0  0  0  0  0  0  0
   -9.7600   -3.1480  -24.5350 C   0  0  0  0  0  0  0  0  0  0  0  0
  -11.1210   -3.3530  -24.7500 C   0  0  0  0  0  0  0  0  0  0  0  0
  -12.0140   -3.1010  -23.7270 C   0  0  0  0  0  0  0  0  0  0  0  0
  -11.5380   -2.5850  -22.5340 C   0  0  0  0  0  0  0  0  0  0  0  0
  -12.4570   -2.3030  -21.6050 F   0  0  0  0  0  0  0  0  0  0  0  0
  -10.1990   -2.3870  -22.2710 C   0  0  0  0  0  0  0  0  0  0  0  0
   -9.2950   -2.7220  -23.2860 C   0  0  0  0  0  0  0  0  0  0  0  0
   -9.8380   -2.0160  -21.3100 H   0  0  0  0  0  0  0  0  0  0  0  0
  -13.0760   -3.3120  -23.7610 H   0  0  0  0  0  0  0  0  0  0  0  0
  -11.4390   -3.7120  -25.7210 H   0  0  0  0  0  0  0  0  0  0  0  0
   -5.9710   -2.6750  -24.0810 H   0  0  0  0  0  0  0  0  0  0  0  0
   -7.1640   -1.4280  -24.5430 H   0  0  0  0  0  0  0  0  0  0  0  0
   -5.3910   -3.5820  -21.4410 H   0  0  0  0  0  0  0  0  0  0  0  0
   -6.4880   -3.9320  -20.1030 H   0  0  0  0  0  0  0  0  0  0  0  0
   -8.3530   -4.2440  -21.5760 H   0  0  0  0  0  0  0  0  0  0  0  0
   -6.0050   -4.9660  -23.4070 H   0  0  0  0  0  0  0  0  0  0  0  0
   -7.6720   -5.5130  -23.6240 H   0  0  0  0  0  0  0  0  0  0  0  0
   -6.7440   -6.0270  -22.2050 H   0  0  0  0  0  0  0  0  0  0  0  0
  1  2  1  0  0  0  0
  1 56  1  0  0  0  0
  1 57  1  0  0  0  0
  1 58  1  0  0  0  0
  2  3  1  0  0  0  0
  2 23  1  0  0  0  0
  2 55  1  1  0  0  0
  3  4  1  0  0  0  0
  3 53  1  0  0  0  0
  3 54  1  0  0  0  0
  4  5  1  0  0  0  0
  4 21  1  0  0  0  0
  5  6  2  0  0  0  0
  5 14  1  0  0  0  0
  6  7  1  0  0  0  0
  6 20  1  0  0  0  0
  7  8  2  0  0  0  0
  8  9  1  0  0  0  0
  8 19  1  0  0  0  0
  9 10  2  0  0  0  0
  9 14  1  0  0  0  0
 10 11  1  0  0  0  0
 10 18  1  0  0  0  0
 11 12  2  0  0  0  0
 11 17  1  0  0  0  0
 12 13  1  0  0  0  0
 12 16  1  0  0  0  0
 13 14  2  0  0  0  0
 13 15  1  0  0  0  0
 21 22  2  0  0  0  0
 23 21  1  1  0  0  0
 23 24  1  0  0  0  0
 23 47  1  0  0  0  0
 24 25  1  0  0  0  0
 24 51  1  0  0  0  0
 24 52  1  0  0  0  0
 25 26  1  0  0  0  0
 25 39  1  0  0  0  0
 26 27  1  0  0  0  0
 26 37  1  0  0  0  0
 26 38  1  0  0  0  0
 27 28  2  0  0  0  0
 27 33  1  0  0  0  0
 28 29  1  0  0  0  0
 28 36  1  0  0  0  0
 29 30  2  0  0  0  0
 29 31  1  0  0  0  0
 31 32  1  0  0  0  0
 31 35  1  0  0  0  0
 32 33  2  0  0  0  0
 32 34  1  0  0  0  0
 39 40  2  0  0  0  0
 39 41  1  0  0  0  0
 41 42  2  0  0  0  0
 41 47  1  0  0  0  0
 42 43  1  0  0  0  0
 42 50  1  0  0  0  0
 43 44  2  0  0  0  0
 43 49  1  0  0  0  0
 44 45  1  0  0  0  0
 44 46  1  0  0  0  0
 46 47  2  0  0  0  0
 46 48  1  0  0  0  0
M  END
>  <MODEL>
       3

$$$$
best_conformers_30.pdb
 OpenBabel01292518153D

 58 63  0  0  1  0  0  0  0  0999 V2000
   -6.9640   -5.1940  -22.8790 C   0  0  0  0  0  0  0  0  0  0  0  0
   -7.4690   -3.9740  -22.1080 C   0  0  1  0  0  0  0  0  0  0  0  0
   -6.4620   -3.4550  -21.0700 C   0  0  0  0  0  0  0  0  0  0  0  0
   -6.7700   -2.0410  -20.9640 N   0  0  0  0  0  0  0  0  0  0  0  0
   -6.1700   -1.1900  -20.0070 C   0  0  0  0  0  0  0  0  0  0  0  0
   -6.5300   -1.2960  -18.6880 C   0  0  0  0  0  0  0  0  0  0  0  0
   -6.0260   -0.5340  -17.6880 N   0  0  0  0  0  0  0  0  0  0  0  0
   -5.1110    0.3490  -18.0160 C   0  0  0  0  0  0  0  0  0  0  0  0
   -4.6180    0.5390  -19.3400 C   0  0  0  0  0  0  0  0  0  0  0  0
   -3.6140    1.5020  -19.6350 C   0  0  0  0  0  0  0  0  0  0  0  0
   -3.1410    1.6470  -20.9110 C   0  0  0  0  0  0  0  0  0  0  0  0
   -3.6450    0.8310  -21.9500 C   0  0  0  0  0  0  0  0  0  0  0  0
   -4.6160   -0.1010  -21.6910 C   0  0  0  0  0  0  0  0  0  0  0  0
   -5.1480   -0.2580  -20.3780 C   0  0  0  0  0  0  0  0  0  0  0  0
   -4.9970   -0.7170  -22.5000 H   0  0  0  0  0  0  0  0  0  0  0  0
   -3.2730    0.9570  -22.9630 H   0  0  0  0  0  0  0  0  0  0  0  0
   -2.3850    2.3950  -21.1350 H   0  0  0  0  0  0  0  0  0  0  0  0
   -3.2400    2.1220  -18.8240 H   0  0  0  0  0  0  0  0  0  0  0  0
   -4.7110    0.9660  -17.2110 H   0  0  0  0  0  0  0  0  0  0  0  0
   -7.2830   -2.0260  -18.3920 H   0  0  0  0  0  0  0  0  0  0  0  0
   -7.5200   -1.5500  -22.0050 C   0  0  0  0  0  0  0  0  0  0  0  0
   -7.8370   -0.3830  -22.1290 O   0  0  0  0  0  0  0  0  0  0  0  0
   -7.8590   -2.7090  -22.9550 C   0  0  1  0  0  0  0  0  0  0  0  0
   -7.0640   -2.5060  -24.2550 C   0  0  0  0  0  0  0  0  0  0  0  0
   -7.4870   -3.4020  -25.3160 N   0  0  0  0  0  0  0  0  0  0  0  0
   -6.4740   -3.8260  -26.2730 C   0  0  0  0  0  0  0  0  0  0  0  0
   -6.1200   -2.7720  -27.2890 C   0  0  0  0  0  0  0  0  0  0  0  0
   -6.7340   -2.7780  -28.5010 C   0  0  0  0  0  0  0  0  0  0  0  0
   -6.4490   -1.7580  -29.4890 C   0  0  0  0  0  0  0  0  0  0  0  0
   -6.9090   -1.5780  -30.6020 O   0  0  0  0  0  0  0  0  0  0  0  0
   -5.4780   -0.8570  -29.0070 N   0  0  0  0  0  0  0  0  0  0  0  0
   -4.8990   -0.9420  -27.7860 C   0  0  0  0  0  0  0  0  0  0  0  0
   -5.1660   -1.8510  -26.9040 N   0  0  0  0  0  0  0  0  0  0  0  0
   -4.1730   -0.1620  -27.5760 H   0  0  0  0  0  0  0  0  0  0  0  0
   -5.2480   -0.1020  -29.6410 H   0  0  0  0  0  0  0  0  0  0  0  0
   -7.4750   -3.5420  -28.6870 H   0  0  0  0  0  0  0  0  0  0  0  0
   -5.5690   -4.0640  -25.7100 H   0  0  0  0  0  0  0  0  0  0  0  0
   -6.8530   -4.7220  -26.7690 H   0  0  0  0  0  0  0  0  0  0  0  0
   -8.8080   -3.5610  -25.6370 C   0  0  0  0  0  0  0  0  0  0  0  0
   -9.1790   -4.0380  -26.6990 O   0  0  0  0  0  0  0  0  0  0  0  0
   -9.7740   -3.1480  -24.5600 C   0  0  0  0  0  0  0  0  0  0  0  0
  -11.1460   -3.2840  -24.7820 C   0  0  0  0  0  0  0  0  0  0  0  0
  -12.0360   -3.0030  -23.7580 C   0  0  0  0  0  0  0  0  0  0  0  0
  -11.5750   -2.5290  -22.5460 C   0  0  0  0  0  0  0  0  0  0  0  0
  -12.4900   -2.2030  -21.6230 F   0  0  0  0  0  0  0  0  0  0  0  0
  -10.2330   -2.3990  -22.2990 C   0  0  0  0  0  0  0  0  0  0  0  0
   -9.3220   -2.7100  -23.3110 C   0  0  0  0  0  0  0  0  0  0  0  0
   -9.9010   -2.0780  -21.3240 H   0  0  0  0  0  0  0  0  0  0  0  0
  -13.1010   -3.1670  -23.7820 H   0  0  0  0  0  0  0  0  0  0  0  0
  -11.4820   -3.6160  -25.7610 H   0  0  0  0  0  0  0  0  0  0  0  0
   -5.9960   -2.6830  -24.0910 H   0  0  0  0  0  0  0  0  0  0  0  0
   -7.1960   -1.4620  -24.5720 H   0  0  0  0  0  0  0  0  0  0  0  0
   -5.4280   -3.6090  -21.4130 H   0  0  0  0  0  0  0  0  0  0  0  0
   -6.5460   -3.9270  -20.0880 H   0  0  0  0  0  0  0  0  0  0  0  0
   -8.3990   -4.2490  -21.5920 H   0  0  0  0  0  0  0  0  0  0  0  0
   -6.7730   -6.0370  -22.2070 H   0  0  0  0  0  0  0  0  0  0  0  0
   -7.6880   -5.5160  -23.6330 H   0  0  0  0  0  0  0  0  0  0  0  0
   -6.0260   -4.9700  -23.4000 H   0  0  0  0  0  0  0  0  0  0  0  0
  1  2  1  0  0  0  0
  1 56  1  0  0  0  0
  1 57  1  0  0  0  0
  1 58  1  0  0  0  0
  2  3  1  0  0  0  0
  2 23  1  0  0  0  0
  2 55  1  1  0  0  0
  3  4  1  0  0  0  0
  3 53  1  0  0  0  0
  3 54  1  0  0  0  0
  4  5  1  0  0  0  0
  4 21  1  0  0  0  0
  5  6  2  0  0  0  0
  5 14  1  0  0  0  0
  6  7  1  0  0  0  0
  6 20  1  0  0  0  0
  7  8  2  0  0  0  0
  8  9  1  0  0  0  0
  8 19  1  0  0  0  0
  9 10  2  0  0  0  0
  9 14  1  0  0  0  0
 10 11  1  0  0  0  0
 10 18  1  0  0  0  0
 11 12  2  0  0  0  0
 11 17  1  0  0  0  0
 12 13  1  0  0  0  0
 12 16  1  0  0  0  0
 13 14  2  0  0  0  0
 13 15  1  0  0  0  0
 21 22  2  0  0  0  0
 23 21  1  1  0  0  0
 23 24  1  0  0  0  0
 23 47  1  0  0  0  0
 24 25  1  0  0  0  0
 24 51  1  0  0  0  0
 24 52  1  0  0  0  0
 25 26  1  0  0  0  0
 25 39  1  0  0  0  0
 26 27  1  0  0  0  0
 26 37  1  0  0  0  0
 26 38  1  0  0  0  0
 27 28  2  0  0  0  0
 27 33  1  0  0  0  0
 28 29  1  0  0  0  0
 28 36  1  0  0  0  0
 29 30  2  0  0  0  0
 29 31  1  0  0  0  0
 31 32  1  0  0  0  0
 31 35  1  0  0  0  0
 32 33  2  0  0  0  0
 32 34  1  0  0  0  0
 39 40  2  0  0  0  0
 39 41  1  0  0  0  0
 41 42  2  0  0  0  0
 41 47  1  0  0  0  0
 42 43  1  0  0  0  0
 42 50  1  0  0  0  0
 43 44  2  0  0  0  0
 43 49  1  0  0  0  0
 44 45  1  0  0  0  0
 44 46  1  0  0  0  0
 46 47  2  0  0  0  0
 46 48  1  0  0  0  0
M  END
>  <MODEL>
       4

$$$$
