best_conformers_74.pdb
 OpenBabel01292518153D

 43 47  0  0  1  0  0  0  0  0999 V2000
   -8.9320   -1.5990  -20.6640 O   0  0  0  0  0  0  0  0  0  0  0  0
   -8.0840   -2.3430  -21.0990 C   0  0  0  0  0  0  0  0  0  0  0  0
   -8.2460   -3.4790  -21.8360 N   0  0  0  0  0  0  0  0  0  0  0  0
   -6.9910   -4.0940  -22.2400 C   0  0  1  0  0  0  0  0  0  0  0  0
   -6.7680   -5.5900  -21.9580 C   0  0  0  0  0  0  0  0  0  0  0  0
   -6.6510   -5.8860  -23.4830 C   0  0  2  0  0  0  0  0  0  0  0  0
   -5.4020   -6.5530  -24.0180 C   0  0  0  0  0  0  0  0  0  0  0  0
   -4.6620   -6.0400  -25.0880 C   0  0  0  0  0  0  0  0  0  0  0  0
   -3.4950   -6.6410  -25.5350 C   0  0  0  0  0  0  0  0  0  0  0  0
   -3.0260   -7.7840  -24.9050 C   0  0  0  0  0  0  0  0  0  0  0  0
   -3.7580   -8.3480  -23.8690 C   0  0  0  0  0  0  0  0  0  0  0  0
   -4.9580   -7.7620  -23.4790 C   0  0  0  0  0  0  0  0  0  0  0  0
   -5.9860   -8.5640  -22.3230 Cl  0  0  0  0  0  0  0  0  0  0  0  0
   -3.3550   -9.2180  -23.3710 H   0  0  0  0  0  0  0  0  0  0  0  0
   -2.0920   -8.2390  -25.2160 H   0  0  0  0  0  0  0  0  0  0  0  0
   -2.9470   -6.2030  -26.3630 H   0  0  0  0  0  0  0  0  0  0  0  0
   -5.0190   -5.1510  -25.5910 H   0  0  0  0  0  0  0  0  0  0  0  0
   -6.7900   -4.3690  -23.7450 C   0  0  0  0  0  0  0  0  0  0  0  0
   -7.6360   -4.0640  -24.3630 H   0  0  0  0  0  0  0  0  0  0  0  0
   -5.8800   -3.9110  -24.1250 H   0  0  0  0  0  0  0  0  0  0  0  0
   -7.5250   -6.4580  -23.8100 H   0  0  0  0  0  0  0  0  0  0  0  0
   -7.6120   -6.0550  -21.4450 H   0  0  0  0  0  0  0  0  0  0  0  0
   -5.8530   -5.7550  -21.3910 H   0  0  0  0  0  0  0  0  0  0  0  0
   -5.9750   -3.1870  -21.5450 C   0  0  0  0  0  0  0  0  0  0  0  0
   -4.7780   -3.3090  -21.4560 O   0  0  0  0  0  0  0  0  0  0  0  0
   -6.7040   -2.1700  -20.9290 N   0  0  0  0  0  0  0  0  0  0  0  0
   -6.1580   -1.2510  -19.9940 C   0  0  0  0  0  0  0  0  0  0  0  0
   -6.5640   -1.3050  -18.6810 C   0  0  0  0  0  0  0  0  0  0  0  0
   -6.0610   -0.5360  -17.6820 N   0  0  0  0  0  0  0  0  0  0  0  0
   -5.1330    0.3290  -18.0220 C   0  0  0  0  0  0  0  0  0  0  0  0
   -4.6510    0.5090  -19.3510 C   0  0  0  0  0  0  0  0  0  0  0  0
   -3.6590    1.4850  -19.6370 C   0  0  0  0  0  0  0  0  0  0  0  0
   -3.2120    1.6670  -20.9180 C   0  0  0  0  0  0  0  0  0  0  0  0
   -3.7400    0.8890  -21.9750 C   0  0  0  0  0  0  0  0  0  0  0  0
   -4.7010   -0.0650  -21.7250 C   0  0  0  0  0  0  0  0  0  0  0  0
   -5.1730   -0.2910  -20.3920 C   0  0  0  0  0  0  0  0  0  0  0  0
   -5.0910   -0.6500  -22.5550 H   0  0  0  0  0  0  0  0  0  0  0  0
   -3.3800    1.0530  -22.9920 H   0  0  0  0  0  0  0  0  0  0  0  0
   -2.4510    2.4160  -21.1320 H   0  0  0  0  0  0  0  0  0  0  0  0
   -3.2780    2.0810  -18.8100 H   0  0  0  0  0  0  0  0  0  0  0  0
   -4.7060    0.9530  -17.2330 H   0  0  0  0  0  0  0  0  0  0  0  0
   -7.3320   -2.0180  -18.3910 H   0  0  0  0  0  0  0  0  0  0  0  0
   -9.1810   -3.8200  -22.0130 H   0  0  0  0  0  0  0  0  0  0  0  0
  1  2  2  0  0  0  0
  2  3  1  0  0  0  0
  2 26  1  0  0  0  0
  3  4  1  0  0  0  0
  3 43  1  0  0  0  0
  4  5  1  0  0  0  0
  4 18  1  0  0  0  0
  4 24  1  1  0  0  0
  5  6  1  0  0  0  0
  5 22  1  0  0  0  0
  5 23  1  0  0  0  0
  6  7  1  0  0  0  0
  6 18  1  0  0  0  0
  6 21  1  6  0  0  0
  7  8  2  0  0  0  0
  7 12  1  0  0  0  0
  8  9  1  0  0  0  0
  8 17  1  0  0  0  0
  9 10  2  0  0  0  0
  9 16  1  0  0  0  0
 10 11  1  0  0  0  0
 10 15  1  0  0  0  0
 11 12  2  0  0  0  0
 11 14  1  0  0  0  0
 12 13  1  0  0  0  0
 18 19  1  0  0  0  0
 18 20  1  0  0  0  0
 24 25  2  0  0  0  0
 24 26  1  0  0  0  0
 26 27  1  0  0  0  0
 27 28  2  0  0  0  0
 27 36  1  0  0  0  0
 28 29  1  0  0  0  0
 28 42  1  0  0  0  0
 29 30  2  0  0  0  0
 30 31  1  0  0  0  0
 30 41  1  0  0  0  0
 31 32  2  0  0  0  0
 31 36  1  0  0  0  0
 32 33  1  0  0  0  0
 32 40  1  0  0  0  0
 33 34  2  0  0  0  0
 33 39  1  0  0  0  0
 34 35  1  0  0  0  0
 34 38  1  0  0  0  0
 35 36  2  0  0  0  0
 35 37  1  0  0  0  0
M  END
>  <MODEL>
       1

$$$$
best_conformers_74.pdb
 OpenBabel01292518153D

 43 47  0  0  1  0  0  0  0  0999 V2000
   -9.0050   -1.7030  -20.6220 O   0  0  0  0  0  0  0  0  0  0  0  0
   -8.1230   -2.3800  -21.0850 C   0  0  0  0  0  0  0  0  0  0  0  0
   -8.2480   -3.5040  -21.8500 N   0  0  0  0  0  0  0  0  0  0  0  0
   -7.0060   -4.0910  -22.2570 C   0  0  1  0  0  0  0  0  0  0  0  0
   -6.8080   -5.5850  -21.9640 C   0  0  0  0  0  0  0  0  0  0  0  0
   -6.6910   -5.8780  -23.4790 C   0  0  2  0  0  0  0  0  0  0  0  0
   -5.4350   -6.5460  -23.9810 C   0  0  0  0  0  0  0  0  0  0  0  0
   -4.6640   -7.3660  -23.1540 C   0  0  0  0  0  0  0  0  0  0  0  0
   -3.5000   -7.9690  -23.6060 C   0  0  0  0  0  0  0  0  0  0  0  0
   -3.0830   -7.7750  -24.9150 C   0  0  0  0  0  0  0  0  0  0  0  0
   -3.8450   -7.0000  -25.7760 C   0  0  0  0  0  0  0  0  0  0  0  0
   -5.0140   -6.4120  -25.3090 C   0  0  0  0  0  0  0  0  0  0  0  0
   -5.9890   -5.5480  -26.4700 Cl  0  0  0  0  0  0  0  0  0  0  0  0
   -3.5510   -6.8710  -26.8120 H   0  0  0  0  0  0  0  0  0  0  0  0
   -2.1770   -8.2460  -25.2750 H   0  0  0  0  0  0  0  0  0  0  0  0
   -2.9290   -8.6020  -22.9360 H   0  0  0  0  0  0  0  0  0  0  0  0
   -4.9960   -7.5620  -22.1410 H   0  0  0  0  0  0  0  0  0  0  0  0
   -6.8270   -4.3600  -23.7530 C   0  0  0  0  0  0  0  0  0  0  0  0
   -7.6970   -4.0750  -24.3480 H   0  0  0  0  0  0  0  0  0  0  0  0
   -5.9290   -3.8980  -24.1510 H   0  0  0  0  0  0  0  0  0  0  0  0
   -7.5740   -6.4120  -23.8380 H   0  0  0  0  0  0  0  0  0  0  0  0
   -7.6650   -6.0410  -21.4700 H   0  0  0  0  0  0  0  0  0  0  0  0
   -5.9100   -5.7550  -21.3750 H   0  0  0  0  0  0  0  0  0  0  0  0
   -6.0100   -3.1590  -21.6080 C   0  0  0  0  0  0  0  0  0  0  0  0
   -4.8070   -3.2590  -21.6030 O   0  0  0  0  0  0  0  0  0  0  0  0
   -6.7330   -2.1500  -20.9540 N   0  0  0  0  0  0  0  0  0  0  0  0
   -6.1560   -1.2350  -20.0130 C   0  0  0  0  0  0  0  0  0  0  0  0
   -6.5250   -1.2920  -18.6910 C   0  0  0  0  0  0  0  0  0  0  0  0
   -6.0160   -0.5190  -17.6940 N   0  0  0  0  0  0  0  0  0  0  0  0
   -5.0960    0.3640  -18.0080 C   0  0  0  0  0  0  0  0  0  0  0  0
   -4.6130    0.5460  -19.3370 C   0  0  0  0  0  0  0  0  0  0  0  0
   -3.6160    1.5200  -19.6350 C   0  0  0  0  0  0  0  0  0  0  0  0
   -3.1810    1.6870  -20.9260 C   0  0  0  0  0  0  0  0  0  0  0  0
   -3.7260    0.8980  -21.9610 C   0  0  0  0  0  0  0  0  0  0  0  0
   -4.6910   -0.0450  -21.6930 C   0  0  0  0  0  0  0  0  0  0  0  0
   -5.1570   -0.2610  -20.3700 C   0  0  0  0  0  0  0  0  0  0  0  0
   -5.1080   -0.6410  -22.4950 H   0  0  0  0  0  0  0  0  0  0  0  0
   -3.3870    1.0420  -22.9830 H   0  0  0  0  0  0  0  0  0  0  0  0
   -2.4270    2.4310  -21.1660 H   0  0  0  0  0  0  0  0  0  0  0  0
   -3.2090    2.1380  -18.8350 H   0  0  0  0  0  0  0  0  0  0  0  0
   -4.6880    0.9890  -17.2050 H   0  0  0  0  0  0  0  0  0  0  0  0
   -7.2730   -2.0100  -18.3720 H   0  0  0  0  0  0  0  0  0  0  0  0
   -9.1420   -3.9010  -22.0750 H   0  0  0  0  0  0  0  0  0  0  0  0
  1  2  2  0  0  0  0
  2  3  1  0  0  0  0
  2 26  1  0  0  0  0
  3  4  1  0  0  0  0
  3 43  1  0  0  0  0
  4  5  1  0  0  0  0
  4 18  1  0  0  0  0
  4 24  1  1  0  0  0
  5  6  1  0  0  0  0
  5 22  1  0  0  0  0
  5 23  1  0  0  0  0
  6  7  1  0  0  0  0
  6 18  1  0  0  0  0
  6 21  1  6  0  0  0
  7  8  2  0  0  0  0
  7 12  1  0  0  0  0
  8  9  1  0  0  0  0
  8 17  1  0  0  0  0
  9 10  2  0  0  0  0
  9 16  1  0  0  0  0
 10 11  1  0  0  0  0
 10 15  1  0  0  0  0
 11 12  2  0  0  0  0
 11 14  1  0  0  0  0
 12 13  1  0  0  0  0
 18 19  1  0  0  0  0
 18 20  1  0  0  0  0
 24 25  2  0  0  0  0
 24 26  1  0  0  0  0
 26 27  1  0  0  0  0
 27 28  2  0  0  0  0
 27 36  1  0  0  0  0
 28 29  1  0  0  0  0
 28 42  1  0  0  0  0
 29 30  2  0  0  0  0
 30 31  1  0  0  0  0
 30 41  1  0  0  0  0
 31 32  2  0  0  0  0
 31 36  1  0  0  0  0
 32 33  1  0  0  0  0
 32 40  1  0  0  0  0
 33 34  2  0  0  0  0
 33 39  1  0  0  0  0
 34 35  1  0  0  0  0
 34 38  1  0  0  0  0
 35 36  2  0  0  0  0
 35 37  1  0  0  0  0
M  END
>  <MODEL>
       2

$$$$
best_conformers_74.pdb
 OpenBabel01292518153D

 43 47  0  0  1  0  0  0  0  0999 V2000
   -8.6320   -0.7930  -21.5300 O   0  0  0  0  0  0  0  0  0  0  0  0
   -7.8670   -1.6940  -21.7860 C   0  0  0  0  0  0  0  0  0  0  0  0
   -7.8870   -2.5560  -22.8500 N   0  0  0  0  0  0  0  0  0  0  0  0
   -6.7930   -3.4800  -22.8990 C   0  0  1  0  0  0  0  0  0  0  0  0
   -7.1420   -4.9630  -23.0960 C   0  0  0  0  0  0  0  0  0  0  0  0
   -6.3620   -4.9860  -24.4320 C   0  0  2  0  0  0  0  0  0  0  0  0
   -5.2340   -5.9750  -24.5790 C   0  0  0  0  0  0  0  0  0  0  0  0
   -5.2150   -7.1680  -23.8560 C   0  0  0  0  0  0  0  0  0  0  0  0
   -4.1750   -8.0710  -23.9840 C   0  0  0  0  0  0  0  0  0  0  0  0
   -3.1210   -7.8160  -24.8470 C   0  0  0  0  0  0  0  0  0  0  0  0
   -3.1280   -6.6600  -25.6100 C   0  0  0  0  0  0  0  0  0  0  0  0
   -4.1840   -5.7670  -25.4830 C   0  0  0  0  0  0  0  0  0  0  0  0
   -4.1940   -4.3940  -26.5590 Cl  0  0  0  0  0  0  0  0  0  0  0  0
   -2.3330   -6.4660  -26.3200 H   0  0  0  0  0  0  0  0  0  0  0  0
   -2.3090   -8.5260  -24.9440 H   0  0  0  0  0  0  0  0  0  0  0  0
   -4.1960   -8.9890  -23.4230 H   0  0  0  0  0  0  0  0  0  0  0  0
   -6.0470   -7.4130  -23.2040 H   0  0  0  0  0  0  0  0  0  0  0  0
   -5.9670   -3.5120  -24.1910 C   0  0  0  0  0  0  0  0  0  0  0  0
   -4.9060   -3.3690  -24.0070 H   0  0  0  0  0  0  0  0  0  0  0  0
   -6.3160   -2.8100  -24.9490 H   0  0  0  0  0  0  0  0  0  0  0  0
   -7.0470   -5.0640  -25.2790 H   0  0  0  0  0  0  0  0  0  0  0  0
   -8.2150   -5.1380  -23.1870 H   0  0  0  0  0  0  0  0  0  0  0  0
   -6.7360   -5.5770  -22.2960 H   0  0  0  0  0  0  0  0  0  0  0  0
   -6.0340   -3.1260  -21.6370 C   0  0  0  0  0  0  0  0  0  0  0  0
   -5.0130   -3.6160  -21.2240 O   0  0  0  0  0  0  0  0  0  0  0  0
   -6.7390   -2.0770  -21.0160 N   0  0  0  0  0  0  0  0  0  0  0  0
   -6.1480   -1.2250  -20.0210 C   0  0  0  0  0  0  0  0  0  0  0  0
   -6.5230   -1.2940  -18.7030 C   0  0  0  0  0  0  0  0  0  0  0  0
   -6.0190   -0.5190  -17.6990 N   0  0  0  0  0  0  0  0  0  0  0  0
   -5.0970    0.3640  -18.0060 C   0  0  0  0  0  0  0  0  0  0  0  0
   -4.6060    0.5500  -19.3320 C   0  0  0  0  0  0  0  0  0  0  0  0
   -3.6090    1.5210  -19.6350 C   0  0  0  0  0  0  0  0  0  0  0  0
   -3.1710    1.6770  -20.9240 C   0  0  0  0  0  0  0  0  0  0  0  0
   -3.7070    0.8810  -21.9580 C   0  0  0  0  0  0  0  0  0  0  0  0
   -4.6690   -0.0580  -21.6870 C   0  0  0  0  0  0  0  0  0  0  0  0
   -5.1430   -0.2570  -20.3640 C   0  0  0  0  0  0  0  0  0  0  0  0
   -5.0870   -0.6580  -22.4850 H   0  0  0  0  0  0  0  0  0  0  0  0
   -3.3610    1.0140  -22.9790 H   0  0  0  0  0  0  0  0  0  0  0  0
   -2.4130    2.4180  -21.1650 H   0  0  0  0  0  0  0  0  0  0  0  0
   -3.2050    2.1390  -18.8360 H   0  0  0  0  0  0  0  0  0  0  0  0
   -4.6880    0.9890  -17.2030 H   0  0  0  0  0  0  0  0  0  0  0  0
   -7.2780   -2.0100  -18.3900 H   0  0  0  0  0  0  0  0  0  0  0  0
   -8.5680   -2.4870  -23.5840 H   0  0  0  0  0  0  0  0  0  0  0  0
  1  2  2  0  0  0  0
  2  3  1  0  0  0  0
  2 26  1  0  0  0  0
  3  4  1  0  0  0  0
  3 43  1  0  0  0  0
  4  5  1  0  0  0  0
  4 18  1  0  0  0  0
  4 24  1  1  0  0  0
  5  6  1  0  0  0  0
  5 22  1  0  0  0  0
  5 23  1  0  0  0  0
  6  7  1  0  0  0  0
  6 18  1  0  0  0  0
  6 21  1  6  0  0  0
  7  8  2  0  0  0  0
  7 12  1  0  0  0  0
  8  9  1  0  0  0  0
  8 17  1  0  0  0  0
  9 10  2  0  0  0  0
  9 16  1  0  0  0  0
 10 11  1  0  0  0  0
 10 15  1  0  0  0  0
 11 12  2  0  0  0  0
 11 14  1  0  0  0  0
 12 13  1  0  0  0  0
 18 19  1  0  0  0  0
 18 20  1  0  0  0  0
 24 25  2  0  0  0  0
 24 26  1  0  0  0  0
 26 27  1  0  0  0  0
 27 28  2  0  0  0  0
 27 36  1  0  0  0  0
 28 29  1  0  0  0  0
 28 42  1  0  0  0  0
 29 30  2  0  0  0  0
 30 31  1  0  0  0  0
 30 41  1  0  0  0  0
 31 32  2  0  0  0  0
 31 36  1  0  0  0  0
 32 33  1  0  0  0  0
 32 40  1  0  0  0  0
 33 34  2  0  0  0  0
 33 39  1  0  0  0  0
 34 35  1  0  0  0  0
 34 38  1  0  0  0  0
 35 36  2  0  0  0  0
 35 37  1  0  0  0  0
M  END
>  <MODEL>
       3

$$$$
