best_conformers_21.pdb
 OpenBabel01292518153D

 63 68  0  0  1  0  0  0  0  0999 V2000
   -6.8280   -4.5470  -23.2070 C   0  0  0  0  0  0  0  0  0  0  0  0
   -7.5650   -3.6440  -22.2130 C   0  0  1  0  0  0  0  0  0  0  0  0
   -6.5930   -3.0990  -21.1400 C   0  0  0  0  0  0  0  0  0  0  0  0
   -6.9660   -1.6890  -20.9950 N   0  0  0  0  0  0  0  0  0  0  0  0
   -6.3330   -0.8940  -19.9820 C   0  0  0  0  0  0  0  0  0  0  0  0
   -6.6940   -1.0670  -18.6690 C   0  0  0  0  0  0  0  0  0  0  0  0
   -6.1220   -0.4320  -17.6190 N   0  0  0  0  0  0  0  0  0  0  0  0
   -5.1140    0.3690  -17.8830 C   0  0  0  0  0  0  0  0  0  0  0  0
   -4.5910    0.5930  -19.1880 C   0  0  0  0  0  0  0  0  0  0  0  0
   -3.4590    1.4220  -19.4160 C   0  0  0  0  0  0  0  0  0  0  0  0
   -2.9640    1.5930  -20.6810 C   0  0  0  0  0  0  0  0  0  0  0  0
   -3.5940    0.9740  -21.7860 C   0  0  0  0  0  0  0  0  0  0  0  0
   -4.7080    0.1850  -21.5960 C   0  0  0  0  0  0  0  0  0  0  0  0
   -5.2370   -0.0280  -20.2920 C   0  0  0  0  0  0  0  0  0  0  0  0
   -5.1680   -0.3070  -22.4490 H   0  0  0  0  0  0  0  0  0  0  0  0
   -3.1460    1.0750  -22.7760 H   0  0  0  0  0  0  0  0  0  0  0  0
   -2.0970    2.2260  -20.8510 H   0  0  0  0  0  0  0  0  0  0  0  0
   -2.9980    1.9120  -18.5620 H   0  0  0  0  0  0  0  0  0  0  0  0
   -4.6390    0.8660  -17.0360 H   0  0  0  0  0  0  0  0  0  0  0  0
   -7.4990   -1.7540  -18.4180 H   0  0  0  0  0  0  0  0  0  0  0  0
   -7.8920   -1.3210  -21.8870 C   0  0  0  0  0  0  0  0  0  0  0  0
   -8.5030   -0.1560  -21.9350 O   0  0  0  0  0  0  0  0  0  0  0  0
   -8.3320   -2.4070  -22.7910 C   0  0  1  0  0  0  0  0  0  0  0  0
   -7.9140   -2.1400  -24.2730 C   0  0  0  0  0  0  0  0  0  0  0  0
   -8.6500   -1.0650  -24.9070 N   0  0  0  0  0  0  0  0  0  0  0  0
   -8.0410   -0.2350  -25.9380 C   0  0  0  0  0  0  0  0  0  0  0  0
   -7.8260    1.2140  -25.4480 C   0  0  0  0  0  0  0  0  0  0  0  0
   -8.4310    2.1570  -25.9260 O   0  0  0  0  0  0  0  0  0  0  0  0
   -6.9130    1.3450  -24.4470 N   0  0  0  0  0  0  0  0  0  0  0  0
   -6.8140    2.6830  -23.6790 C   0  0  0  0  0  0  0  0  0  0  0  0
   -7.5100    2.8620  -22.4210 C   0  0  0  0  0  0  0  0  0  0  0  0
   -7.0870    4.0750  -21.6530 C   0  0  0  0  0  0  0  0  0  0  0  0
   -7.3030    2.8290  -22.1770 C   0  0  0  0  0  0  0  0  0  0  0  0
   -7.9710    0.5940  -21.5910 H   0  0  0  0  0  0  0  0  0  0  0  0
   -6.5240    2.1480  -21.4830 H   0  0  0  0  0  0  0  0  0  0  0  0
   -8.0420    4.1710  -21.7100 H   0  0  0  0  0  0  0  0  0  0  0  0
   -6.2940    4.1010  -20.9120 H   0  0  0  0  0  0  0  0  0  0  0  0
   -8.5510    3.2070  -22.9620 H   0  0  0  0  0  0  0  0  0  0  0  0
   -5.7660    2.9510  -23.7920 H   0  0  0  0  0  0  0  0  0  0  0  0
   -7.3560    3.2650  -24.4300 H   0  0  0  0  0  0  0  0  0  0  0  0
   -6.3370    0.5460  -24.2000 H   0  0  0  0  0  0  0  0  0  0  0  0
   -7.0860   -0.6870  -26.2330 H   0  0  0  0  0  0  0  0  0  0  0  0
   -8.6960   -0.1930  -26.8100 H   0  0  0  0  0  0  0  0  0  0  0  0
   -9.9590   -0.8170  -24.6260 C   0  0  0  0  0  0  0  0  0  0  0  0
  -10.5830    0.0940  -25.1520 O   0  0  0  0  0  0  0  0  0  0  0  0
  -10.6130   -1.7040  -23.6260 C   0  0  0  0  0  0  0  0  0  0  0  0
  -12.0040   -1.6390  -23.5730 C   0  0  0  0  0  0  0  0  0  0  0  0
  -12.6940   -2.3560  -22.6240 C   0  0  0  0  0  0  0  0  0  0  0  0
  -11.9570   -3.0980  -21.7120 C   0  0  0  0  0  0  0  0  0  0  0  0
  -12.6600   -3.7170  -20.7480 F   0  0  0  0  0  0  0  0  0  0  0  0
  -10.5730   -3.1860  -21.7480 C   0  0  0  0  0  0  0  0  0  0  0  0
   -9.8660   -2.4920  -22.7420 C   0  0  0  0  0  0  0  0  0  0  0  0
  -10.0780   -3.7640  -20.9750 H   0  0  0  0  0  0  0  0  0  0  0  0
  -13.7760   -2.3370  -22.5520 H   0  0  0  0  0  0  0  0  0  0  0  0
  -12.5160   -0.9950  -24.2790 H   0  0  0  0  0  0  0  0  0  0  0  0
   -8.0710   -3.0690  -24.8280 H   0  0  0  0  0  0  0  0  0  0  0  0
   -6.8490   -1.8920  -24.2940 H   0  0  0  0  0  0  0  0  0  0  0  0
   -5.5420   -3.1830  -21.4440 H   0  0  0  0  0  0  0  0  0  0  0  0
   -6.6800   -3.6180  -20.1820 H   0  0  0  0  0  0  0  0  0  0  0  0
   -8.3250   -4.2550  -21.7270 H   0  0  0  0  0  0  0  0  0  0  0  0
   -6.3400   -5.3700  -22.6740 H   0  0  0  0  0  0  0  0  0  0  0  0
   -6.0400   -4.0120  -23.7500 H   0  0  0  0  0  0  0  0  0  0  0  0
   -7.5100   -4.9800  -23.9460 H   0  0  0  0  0  0  0  0  0  0  0  0
  1  2  1  0  0  0  0
  1 61  1  0  0  0  0
  1 62  1  0  0  0  0
  1 63  1  0  0  0  0
  2  3  1  0  0  0  0
  2 23  1  0  0  0  0
  2 60  1  1  0  0  0
  3  4  1  0  0  0  0
  3 58  1  0  0  0  0
  3 59  1  0  0  0  0
  4  5  1  0  0  0  0
  4 21  1  0  0  0  0
  5  6  2  0  0  0  0
  5 14  1  0  0  0  0
  6  7  1  0  0  0  0
  6 20  1  0  0  0  0
  7  8  2  0  0  0  0
  8  9  1  0  0  0  0
  8 19  1  0  0  0  0
  9 10  2  0  0  0  0
  9 14  1  0  0  0  0
 10 11  1  0  0  0  0
 10 18  1  0  0  0  0
 11 12  2  0  0  0  0
 11 17  1  0  0  0  0
 12 13  1  0  0  0  0
 12 16  1  0  0  0  0
 13 14  2  0  0  0  0
 13 15  1  0  0  0  0
 21 22  2  0  0  0  0
 23 21  1  1  0  0  0
 23 24  1  0  0  0  0
 23 52  1  0  0  0  0
 24 25  1  0  0  0  0
 24 56  1  0  0  0  0
 24 57  1  0  0  0  0
 25 26  1  0  0  0  0
 25 44  1  0  0  0  0
 26 27  1  0  0  0  0
 26 42  1  0  0  0  0
 26 43  1  0  0  0  0
 27 28  2  0  0  0  0
 27 29  1  0  0  0  0
 29 30  1  0  0  0  0
 29 41  1  0  0  0  0
 30 31  1  0  0  0  0
 30 39  1  0  0  0  0
 30 40  1  0  0  0  0
 31 32  1  0  0  0  0
 31 33  1  0  0  0  0
 31 38  1  0  0  0  0
 32 33  1  0  0  0  0
 32 36  1  0  0  0  0
 32 37  1  0  0  0  0
 33 34  1  0  0  0  0
 33 35  1  0  0  0  0
 44 45  2  0  0  0  0
 44 46  1  0  0  0  0
 46 47  2  0  0  0  0
 46 52  1  0  0  0  0
 47 48  1  0  0  0  0
 47 55  1  0  0  0  0
 48 49  2  0  0  0  0
 48 54  1  0  0  0  0
 49 50  1  0  0  0  0
 49 51  1  0  0  0  0
 51 52  2  0  0  0  0
 51 53  1  0  0  0  0
M  END
>  <MODEL>
       1

$$$$
