best_conformers_51.pdb
 OpenBabel01292518153D

 50 52  0  0  0  0  0  0  0  0999 V2000
  -11.6670   -1.9700  -22.0860 C   0  0  0  0  0  0  0  0  0  0  0  0
  -10.7590   -2.5910  -22.8240 C   0  0  0  0  0  0  0  0  0  0  0  0
   -9.7970   -3.5810  -22.2100 C   0  0  0  0  0  0  0  0  0  0  0  0
   -8.4050   -3.1430  -22.1880 N   0  0  0  0  0  0  0  0  0  0  0  0
   -8.0300   -2.3740  -21.1100 C   0  0  0  0  0  0  0  0  0  0  0  0
   -8.8250   -2.0640  -20.2390 O   0  0  0  0  0  0  0  0  0  0  0  0
   -6.7030   -2.0230  -21.0680 N   0  0  0  0  0  0  0  0  0  0  0  0
   -6.1680   -1.2300  -20.0480 C   0  0  0  0  0  0  0  0  0  0  0  0
   -6.5840   -1.3350  -18.7430 C   0  0  0  0  0  0  0  0  0  0  0  0
   -6.0830   -0.5920  -17.7270 N   0  0  0  0  0  0  0  0  0  0  0  0
   -5.1550    0.2880  -18.0320 C   0  0  0  0  0  0  0  0  0  0  0  0
   -4.6410    0.4900  -19.3450 C   0  0  0  0  0  0  0  0  0  0  0  0
   -3.6570    1.4670  -19.6400 C   0  0  0  0  0  0  0  0  0  0  0  0
   -3.2120    1.6370  -20.9220 C   0  0  0  0  0  0  0  0  0  0  0  0
   -3.7260    0.8480  -21.9760 C   0  0  0  0  0  0  0  0  0  0  0  0
   -4.6810   -0.1050  -21.7220 C   0  0  0  0  0  0  0  0  0  0  0  0
   -5.1510   -0.2980  -20.3960 C   0  0  0  0  0  0  0  0  0  0  0  0
   -5.0960   -0.6960  -22.5400 H   0  0  0  0  0  0  0  0  0  0  0  0
   -3.3620    1.0030  -22.9860 H   0  0  0  0  0  0  0  0  0  0  0  0
   -2.4620    2.3900  -21.1400 H   0  0  0  0  0  0  0  0  0  0  0  0
   -3.2850    2.0800  -18.8270 H   0  0  0  0  0  0  0  0  0  0  0  0
   -4.7560    0.8910  -17.2160 H   0  0  0  0  0  0  0  0  0  0  0  0
   -7.3690   -2.0450  -18.5030 H   0  0  0  0  0  0  0  0  0  0  0  0
   -6.0620   -2.4370  -21.7330 H   0  0  0  0  0  0  0  0  0  0  0  0
   -7.6290   -3.3520  -23.3550 C   0  0  0  0  0  0  0  0  0  0  0  0
   -7.1610   -2.2750  -24.1060 C   0  0  0  0  0  0  0  0  0  0  0  0
   -6.4520   -2.5040  -25.2780 C   0  0  0  0  0  0  0  0  0  0  0  0
   -6.2010   -3.8010  -25.7140 C   0  0  0  0  0  0  0  0  0  0  0  0
   -6.7190   -4.8610  -24.9770 C   0  0  0  0  0  0  0  0  0  0  0  0
   -6.5060   -6.4910  -25.5510 Cl  0  0  0  0  0  0  0  0  0  0  0  0
   -7.4510   -4.6550  -23.8160 C   0  0  0  0  0  0  0  0  0  0  0  0
   -7.8870   -5.4940  -23.2790 H   0  0  0  0  0  0  0  0  0  0  0  0
   -5.6440   -3.9920  -26.6260 H   0  0  0  0  0  0  0  0  0  0  0  0
   -6.0970   -1.6640  -25.8650 H   0  0  0  0  0  0  0  0  0  0  0  0
   -7.4090   -1.2660  -23.7910 H   0  0  0  0  0  0  0  0  0  0  0  0
  -10.0890   -3.7860  -21.1800 H   0  0  0  0  0  0  0  0  0  0  0  0
   -9.8140   -4.5200  -22.7560 H   0  0  0  0  0  0  0  0  0  0  0  0
  -10.7140   -2.2960  -24.2840 C   0  0  0  0  0  0  0  0  0  0  0  0
  -11.1600   -1.2450  -24.7390 O   0  0  0  0  0  0  0  0  0  0  0  0
  -10.1600   -3.2710  -25.0500 N   0  0  0  0  0  0  0  0  0  0  0  0
   -9.9830   -2.9810  -26.4540 C   0  0  0  0  0  0  0  0  0  0  0  0
   -9.6620   -4.1730  -27.3290 C   0  0  0  0  0  0  0  0  0  0  0  0
   -8.7450   -4.6740  -27.0050 H   0  0  0  0  0  0  0  0  0  0  0  0
  -10.4920   -4.8890  -27.3460 H   0  0  0  0  0  0  0  0  0  0  0  0
   -9.5010   -3.8230  -28.3580 H   0  0  0  0  0  0  0  0  0  0  0  0
   -9.2120   -2.2040  -26.5440 H   0  0  0  0  0  0  0  0  0  0  0  0
  -10.9180   -2.5380  -26.7690 H   0  0  0  0  0  0  0  0  0  0  0  0
  -10.1250   -4.2250  -24.7080 H   0  0  0  0  0  0  0  0  0  0  0  0
  -11.7790   -2.3040  -21.0640 H   0  0  0  0  0  0  0  0  0  0  0  0
  -12.3250   -1.2070  -22.4900 H   0  0  0  0  0  0  0  0  0  0  0  0
  1  2  2  0  0  0  0
  1 49  1  0  0  0  0
  1 50  1  0  0  0  0
  2  3  1  0  0  0  0
  2 38  1  0  0  0  0
  3  4  1  0  0  0  0
  3 36  1  0  0  0  0
  3 37  1  0  0  0  0
  4  5  1  0  0  0  0
  4 25  1  0  0  0  0
  5  6  2  0  0  0  0
  5  7  1  0  0  0  0
  7  8  1  0  0  0  0
  7 24  1  0  0  0  0
  8  9  2  0  0  0  0
  8 17  1  0  0  0  0
  9 10  1  0  0  0  0
  9 23  1  0  0  0  0
 10 11  2  0  0  0  0
 11 12  1  0  0  0  0
 11 22  1  0  0  0  0
 12 13  2  0  0  0  0
 12 17  1  0  0  0  0
 13 14  1  0  0  0  0
 13 21  1  0  0  0  0
 14 15  2  0  0  0  0
 14 20  1  0  0  0  0
 15 16  1  0  0  0  0
 15 19  1  0  0  0  0
 16 17  2  0  0  0  0
 16 18  1  0  0  0  0
 25 26  2  0  0  0  0
 25 31  1  0  0  0  0
 26 27  1  0  0  0  0
 26 35  1  0  0  0  0
 27 28  2  0  0  0  0
 27 34  1  0  0  0  0
 28 29  1  0  0  0  0
 28 33  1  0  0  0  0
 29 30  1  0  0  0  0
 29 31  2  0  0  0  0
 31 32  1  0  0  0  0
 38 39  2  0  0  0  0
 38 40  1  0  0  0  0
 40 41  1  0  0  0  0
 40 48  1  0  0  0  0
 41 42  1  0  0  0  0
 41 46  1  0  0  0  0
 41 47  1  0  0  0  0
 42 43  1  0  0  0  0
 42 44  1  0  0  0  0
 42 45  1  0  0  0  0
M  END
>  <MODEL>
       1

$$$$
best_conformers_51.pdb
 OpenBabel01292518153D

 50 52  0  0  0  0  0  0  0  0999 V2000
  -11.2500   -4.2800  -24.2020 C   0  0  0  0  0  0  0  0  0  0  0  0
  -10.6940   -3.2800  -23.5260 C   0  0  0  0  0  0  0  0  0  0  0  0
   -9.8860   -3.4660  -22.2530 C   0  0  0  0  0  0  0  0  0  0  0  0
   -8.5090   -2.9570  -22.2840 N   0  0  0  0  0  0  0  0  0  0  0  0
   -8.0800   -2.1990  -21.2040 C   0  0  0  0  0  0  0  0  0  0  0  0
   -8.8800   -1.7080  -20.4320 O   0  0  0  0  0  0  0  0  0  0  0  0
   -6.7230   -2.0380  -21.0350 N   0  0  0  0  0  0  0  0  0  0  0  0
   -6.1630   -1.2180  -20.0210 C   0  0  0  0  0  0  0  0  0  0  0  0
   -6.5460   -1.3030  -18.7030 C   0  0  0  0  0  0  0  0  0  0  0  0
   -6.0300   -0.5440  -17.6990 N   0  0  0  0  0  0  0  0  0  0  0  0
   -5.1120    0.3390  -18.0190 C   0  0  0  0  0  0  0  0  0  0  0  0
   -4.6180    0.5340  -19.3380 C   0  0  0  0  0  0  0  0  0  0  0  0
   -3.6260    1.5030  -19.6430 C   0  0  0  0  0  0  0  0  0  0  0  0
   -3.1880    1.6630  -20.9290 C   0  0  0  0  0  0  0  0  0  0  0  0
   -3.7190    0.8670  -21.9680 C   0  0  0  0  0  0  0  0  0  0  0  0
   -4.6800   -0.0780  -21.7020 C   0  0  0  0  0  0  0  0  0  0  0  0
   -5.1500   -0.2670  -20.3760 C   0  0  0  0  0  0  0  0  0  0  0  0
   -5.0980   -0.6810  -22.5080 H   0  0  0  0  0  0  0  0  0  0  0  0
   -3.3720    1.0120  -22.9880 H   0  0  0  0  0  0  0  0  0  0  0  0
   -2.4360    2.4140  -21.1560 H   0  0  0  0  0  0  0  0  0  0  0  0
   -3.2410    2.1170  -18.8320 H   0  0  0  0  0  0  0  0  0  0  0  0
   -4.7150    0.9590  -17.2140 H   0  0  0  0  0  0  0  0  0  0  0  0
   -7.2980   -2.0210  -18.3940 H   0  0  0  0  0  0  0  0  0  0  0  0
   -6.0960   -2.5480  -21.6430 H   0  0  0  0  0  0  0  0  0  0  0  0
   -7.7260   -3.1820  -23.4360 C   0  0  0  0  0  0  0  0  0  0  0  0
   -7.5800   -4.4670  -23.9570 C   0  0  0  0  0  0  0  0  0  0  0  0
   -6.8000   -4.6650  -25.0900 C   0  0  0  0  0  0  0  0  0  0  0  0
   -6.1830   -3.5890  -25.7220 C   0  0  0  0  0  0  0  0  0  0  0  0
   -6.3730   -2.3100  -25.2120 C   0  0  0  0  0  0  0  0  0  0  0  0
   -5.6010   -0.9440  -25.9810 Cl  0  0  0  0  0  0  0  0  0  0  0  0
   -7.1470   -2.0910  -24.0830 C   0  0  0  0  0  0  0  0  0  0  0  0
   -7.3210   -1.0830  -23.7200 H   0  0  0  0  0  0  0  0  0  0  0  0
   -5.5610   -3.7320  -26.6000 H   0  0  0  0  0  0  0  0  0  0  0  0
   -6.6710   -5.6750  -25.4820 H   0  0  0  0  0  0  0  0  0  0  0  0
   -8.0670   -5.3100  -23.4690 H   0  0  0  0  0  0  0  0  0  0  0  0
  -10.3300   -2.9700  -21.3870 H   0  0  0  0  0  0  0  0  0  0  0  0
   -9.8390   -4.5350  -22.0440 H   0  0  0  0  0  0  0  0  0  0  0  0
  -10.8050   -1.9510  -24.1890 C   0  0  0  0  0  0  0  0  0  0  0  0
  -11.1970   -1.8690  -25.3440 O   0  0  0  0  0  0  0  0  0  0  0  0
  -10.4350   -0.8720  -23.4710 N   0  0  0  0  0  0  0  0  0  0  0  0
  -10.1840    0.3750  -24.1650 C   0  0  0  0  0  0  0  0  0  0  0  0
   -9.6980    1.4380  -23.1920 C   0  0  0  0  0  0  0  0  0  0  0  0
  -10.4540    1.6660  -22.4320 H   0  0  0  0  0  0  0  0  0  0  0  0
   -8.7840    1.1020  -22.6810 H   0  0  0  0  0  0  0  0  0  0  0  0
   -9.4670    2.3610  -23.7330 H   0  0  0  0  0  0  0  0  0  0  0  0
  -11.0970    0.6740  -24.6970 H   0  0  0  0  0  0  0  0  0  0  0  0
   -9.4390    0.1750  -24.9530 H   0  0  0  0  0  0  0  0  0  0  0  0
  -10.2970   -0.9410  -22.4720 H   0  0  0  0  0  0  0  0  0  0  0  0
  -11.8020   -4.1050  -25.1210 H   0  0  0  0  0  0  0  0  0  0  0  0
  -11.1220   -5.2910  -23.8710 H   0  0  0  0  0  0  0  0  0  0  0  0
  1  2  2  0  0  0  0
  1 49  1  0  0  0  0
  1 50  1  0  0  0  0
  2  3  1  0  0  0  0
  2 38  1  0  0  0  0
  3  4  1  0  0  0  0
  3 36  1  0  0  0  0
  3 37  1  0  0  0  0
  4  5  1  0  0  0  0
  4 25  1  0  0  0  0
  5  6  2  0  0  0  0
  5  7  1  0  0  0  0
  7  8  1  0  0  0  0
  7 24  1  0  0  0  0
  8  9  2  0  0  0  0
  8 17  1  0  0  0  0
  9 10  1  0  0  0  0
  9 23  1  0  0  0  0
 10 11  2  0  0  0  0
 11 12  1  0  0  0  0
 11 22  1  0  0  0  0
 12 13  2  0  0  0  0
 12 17  1  0  0  0  0
 13 14  1  0  0  0  0
 13 21  1  0  0  0  0
 14 15  2  0  0  0  0
 14 20  1  0  0  0  0
 15 16  1  0  0  0  0
 15 19  1  0  0  0  0
 16 17  2  0  0  0  0
 16 18  1  0  0  0  0
 25 26  2  0  0  0  0
 25 31  1  0  0  0  0
 26 27  1  0  0  0  0
 26 35  1  0  0  0  0
 27 28  2  0  0  0  0
 27 34  1  0  0  0  0
 28 29  1  0  0  0  0
 28 33  1  0  0  0  0
 29 30  1  0  0  0  0
 29 31  2  0  0  0  0
 31 32  1  0  0  0  0
 38 39  2  0  0  0  0
 38 40  1  0  0  0  0
 40 41  1  0  0  0  0
 40 48  1  0  0  0  0
 41 42  1  0  0  0  0
 41 46  1  0  0  0  0
 41 47  1  0  0  0  0
 42 43  1  0  0  0  0
 42 44  1  0  0  0  0
 42 45  1  0  0  0  0
M  END
>  <MODEL>
       2

$$$$
best_conformers_51.pdb
 OpenBabel01292518153D

 50 52  0  0  0  0  0  0  0  0999 V2000
  -10.9650   -3.6570  -24.5100 C   0  0  0  0  0  0  0  0  0  0  0  0
  -10.7900   -2.9510  -23.3880 C   0  0  0  0  0  0  0  0  0  0  0  0
   -9.8960   -3.4810  -22.2660 C   0  0  0  0  0  0  0  0  0  0  0  0
   -8.5060   -3.0010  -22.2440 N   0  0  0  0  0  0  0  0  0  0  0  0
   -8.0710   -2.2600  -21.1500 C   0  0  0  0  0  0  0  0  0  0  0  0
   -8.8420   -1.8390  -20.3160 O   0  0  0  0  0  0  0  0  0  0  0  0
   -6.7090   -2.0400  -21.0420 N   0  0  0  0  0  0  0  0  0  0  0  0
   -6.1580   -1.2180  -20.0210 C   0  0  0  0  0  0  0  0  0  0  0  0
   -6.5390   -1.3030  -18.7020 C   0  0  0  0  0  0  0  0  0  0  0  0
   -6.0240   -0.5380  -17.7010 N   0  0  0  0  0  0  0  0  0  0  0  0
   -5.1090    0.3460  -18.0180 C   0  0  0  0  0  0  0  0  0  0  0  0
   -4.6140    0.5390  -19.3360 C   0  0  0  0  0  0  0  0  0  0  0  0
   -3.6220    1.5060  -19.6420 C   0  0  0  0  0  0  0  0  0  0  0  0
   -3.1830    1.6680  -20.9260 C   0  0  0  0  0  0  0  0  0  0  0  0
   -3.7190    0.8710  -21.9660 C   0  0  0  0  0  0  0  0  0  0  0  0
   -4.6780   -0.0730  -21.6970 C   0  0  0  0  0  0  0  0  0  0  0  0
   -5.1450   -0.2640  -20.3720 C   0  0  0  0  0  0  0  0  0  0  0  0
   -5.0990   -0.6760  -22.5010 H   0  0  0  0  0  0  0  0  0  0  0  0
   -3.3720    1.0160  -22.9830 H   0  0  0  0  0  0  0  0  0  0  0  0
   -2.4300    2.4170  -21.1570 H   0  0  0  0  0  0  0  0  0  0  0  0
   -3.2350    2.1200  -18.8340 H   0  0  0  0  0  0  0  0  0  0  0  0
   -4.7120    0.9640  -17.2130 H   0  0  0  0  0  0  0  0  0  0  0  0
   -7.2890   -2.0210  -18.3840 H   0  0  0  0  0  0  0  0  0  0  0  0
   -6.0860   -2.5560  -21.6520 H   0  0  0  0  0  0  0  0  0  0  0  0
   -7.7390   -3.1980  -23.4210 C   0  0  0  0  0  0  0  0  0  0  0  0
   -7.5400   -4.4730  -23.9500 C   0  0  0  0  0  0  0  0  0  0  0  0
   -6.7580   -4.6350  -25.0900 C   0  0  0  0  0  0  0  0  0  0  0  0
   -6.2070   -3.5350  -25.7370 C   0  0  0  0  0  0  0  0  0  0  0  0
   -6.4640   -2.2720  -25.2260 C   0  0  0  0  0  0  0  0  0  0  0  0
   -5.7750   -0.8790  -26.0120 Cl  0  0  0  0  0  0  0  0  0  0  0  0
   -7.2280   -2.0860  -24.0860 C   0  0  0  0  0  0  0  0  0  0  0  0
   -7.4390   -1.0850  -23.7200 H   0  0  0  0  0  0  0  0  0  0  0  0
   -5.5890   -3.6460  -26.6210 H   0  0  0  0  0  0  0  0  0  0  0  0
   -6.5720   -5.6340  -25.4750 H   0  0  0  0  0  0  0  0  0  0  0  0
   -7.9780   -5.3380  -23.4550 H   0  0  0  0  0  0  0  0  0  0  0  0
   -9.8470   -4.5620  -22.4160 H   0  0  0  0  0  0  0  0  0  0  0  0
  -10.3010   -3.2520  -21.2800 H   0  0  0  0  0  0  0  0  0  0  0  0
  -11.4090   -1.5920  -23.1790 C   0  0  0  0  0  0  0  0  0  0  0  0
  -10.9460   -0.8090  -22.3590 O   0  0  0  0  0  0  0  0  0  0  0  0
  -12.4900   -1.2680  -23.9480 N   0  0  0  0  0  0  0  0  0  0  0  0
  -13.1010    0.0510  -23.8350 C   0  0  0  0  0  0  0  0  0  0  0  0
  -13.8830    0.2900  -22.5410 C   0  0  0  0  0  0  0  0  0  0  0  0
  -13.1930    0.1950  -21.6990 H   0  0  0  0  0  0  0  0  0  0  0  0
  -14.7070   -0.4240  -22.4190 H   0  0  0  0  0  0  0  0  0  0  0  0
  -14.3140    1.3010  -22.5250 H   0  0  0  0  0  0  0  0  0  0  0  0
  -12.2940    0.7920  -23.9030 H   0  0  0  0  0  0  0  0  0  0  0  0
  -13.7500    0.1680  -24.7070 H   0  0  0  0  0  0  0  0  0  0  0  0
  -13.0060   -1.9970  -24.4140 H   0  0  0  0  0  0  0  0  0  0  0  0
  -11.5090   -3.2910  -25.3780 H   0  0  0  0  0  0  0  0  0  0  0  0
  -10.5100   -4.6430  -24.6350 H   0  0  0  0  0  0  0  0  0  0  0  0
  1  2  2  0  0  0  0
  1 49  1  0  0  0  0
  1 50  1  0  0  0  0
  2  3  1  0  0  0  0
  2 38  1  0  0  0  0
  3  4  1  0  0  0  0
  3 36  1  0  0  0  0
  3 37  1  0  0  0  0
  4  5  1  0  0  0  0
  4 25  1  0  0  0  0
  5  6  2  0  0  0  0
  5  7  1  0  0  0  0
  7  8  1  0  0  0  0
  7 24  1  0  0  0  0
  8  9  2  0  0  0  0
  8 17  1  0  0  0  0
  9 10  1  0  0  0  0
  9 23  1  0  0  0  0
 10 11  2  0  0  0  0
 11 12  1  0  0  0  0
 11 22  1  0  0  0  0
 12 13  2  0  0  0  0
 12 17  1  0  0  0  0
 13 14  1  0  0  0  0
 13 21  1  0  0  0  0
 14 15  2  0  0  0  0
 14 20  1  0  0  0  0
 15 16  1  0  0  0  0
 15 19  1  0  0  0  0
 16 17  2  0  0  0  0
 16 18  1  0  0  0  0
 25 26  2  0  0  0  0
 25 31  1  0  0  0  0
 26 27  1  0  0  0  0
 26 35  1  0  0  0  0
 27 28  2  0  0  0  0
 27 34  1  0  0  0  0
 28 29  1  0  0  0  0
 28 33  1  0  0  0  0
 29 30  1  0  0  0  0
 29 31  2  0  0  0  0
 31 32  1  0  0  0  0
 38 39  2  0  0  0  0
 38 40  1  0  0  0  0
 40 41  1  0  0  0  0
 40 48  1  0  0  0  0
 41 42  1  0  0  0  0
 41 46  1  0  0  0  0
 41 47  1  0  0  0  0
 42 43  1  0  0  0  0
 42 44  1  0  0  0  0
 42 45  1  0  0  0  0
M  END
>  <MODEL>
       3

$$$$
best_conformers_51.pdb
 OpenBabel01292518153D

 50 52  0  0  0  0  0  0  0  0999 V2000
  -10.9080   -3.8450  -24.3980 C   0  0  0  0  0  0  0  0  0  0  0  0
  -10.6950   -3.0950  -23.3220 C   0  0  0  0  0  0  0  0  0  0  0  0
   -9.8190   -3.5650  -22.1910 C   0  0  0  0  0  0  0  0  0  0  0  0
   -8.4670   -3.0320  -22.2120 N   0  0  0  0  0  0  0  0  0  0  0  0
   -8.0390   -2.3000  -21.1170 C   0  0  0  0  0  0  0  0  0  0  0  0
   -8.7900   -1.9470  -20.2260 O   0  0  0  0  0  0  0  0  0  0  0  0
   -6.6940   -2.0250  -21.0500 N   0  0  0  0  0  0  0  0  0  0  0  0
   -6.1410   -1.2300  -20.0280 C   0  0  0  0  0  0  0  0  0  0  0  0
   -6.5400   -1.3200  -18.7160 C   0  0  0  0  0  0  0  0  0  0  0  0
   -6.0440   -0.5580  -17.7130 N   0  0  0  0  0  0  0  0  0  0  0  0
   -5.1220    0.3260  -18.0200 C   0  0  0  0  0  0  0  0  0  0  0  0
   -4.6220    0.5190  -19.3370 C   0  0  0  0  0  0  0  0  0  0  0  0
   -3.6350    1.4940  -19.6340 C   0  0  0  0  0  0  0  0  0  0  0  0
   -3.1920    1.6570  -20.9210 C   0  0  0  0  0  0  0  0  0  0  0  0
   -3.7170    0.8650  -21.9720 C   0  0  0  0  0  0  0  0  0  0  0  0
   -4.6750   -0.0830  -21.7070 C   0  0  0  0  0  0  0  0  0  0  0  0
   -5.1360   -0.2810  -20.3780 C   0  0  0  0  0  0  0  0  0  0  0  0
   -5.0980   -0.6810  -22.5100 H   0  0  0  0  0  0  0  0  0  0  0  0
   -3.3630    1.0150  -22.9920 H   0  0  0  0  0  0  0  0  0  0  0  0
   -2.4400    2.4090  -21.1510 H   0  0  0  0  0  0  0  0  0  0  0  0
   -3.2510    2.1110  -18.8240 H   0  0  0  0  0  0  0  0  0  0  0  0
   -4.7280    0.9420  -17.2110 H   0  0  0  0  0  0  0  0  0  0  0  0
   -7.3110   -2.0270  -18.4350 H   0  0  0  0  0  0  0  0  0  0  0  0
   -6.0720   -2.5030  -21.6870 H   0  0  0  0  0  0  0  0  0  0  0  0
   -7.6930   -3.3090  -23.3640 C   0  0  0  0  0  0  0  0  0  0  0  0
   -7.2070   -2.2450  -24.1170 C   0  0  0  0  0  0  0  0  0  0  0  0
   -6.4700   -2.5000  -25.2640 C   0  0  0  0  0  0  0  0  0  0  0  0
   -6.2300   -3.8130  -25.6600 C   0  0  0  0  0  0  0  0  0  0  0  0
   -6.7550   -4.8620  -24.9140 C   0  0  0  0  0  0  0  0  0  0  0  0
   -6.4610   -6.5030  -25.4230 Cl  0  0  0  0  0  0  0  0  0  0  0  0
   -7.5180   -4.6290  -23.7790 C   0  0  0  0  0  0  0  0  0  0  0  0
   -7.9540   -5.4650  -23.2340 H   0  0  0  0  0  0  0  0  0  0  0  0
   -5.6380   -4.0270  -26.5420 H   0  0  0  0  0  0  0  0  0  0  0  0
   -6.0870   -1.6630  -25.8410 H   0  0  0  0  0  0  0  0  0  0  0  0
   -7.4530   -1.2360  -23.7920 H   0  0  0  0  0  0  0  0  0  0  0  0
  -10.2300   -3.2510  -21.2340 H   0  0  0  0  0  0  0  0  0  0  0  0
   -9.7580   -4.6510  -22.2640 H   0  0  0  0  0  0  0  0  0  0  0  0
  -11.3150   -1.7510  -23.1210 C   0  0  0  0  0  0  0  0  0  0  0  0
  -10.8900   -0.9440  -22.3090 O   0  0  0  0  0  0  0  0  0  0  0  0
  -12.3850   -1.4850  -23.9140 N   0  0  0  0  0  0  0  0  0  0  0  0
  -12.9540   -0.1640  -23.8590 C   0  0  0  0  0  0  0  0  0  0  0  0
  -14.1890   -0.0750  -24.7100 C   0  0  0  0  0  0  0  0  0  0  0  0
  -14.5640    0.9470  -24.6630 H   0  0  0  0  0  0  0  0  0  0  0  0
  -14.9590   -0.7580  -24.3440 H   0  0  0  0  0  0  0  0  0  0  0  0
  -13.9680   -0.3320  -25.7490 H   0  0  0  0  0  0  0  0  0  0  0  0
  -12.1920    0.5300  -24.2130 H   0  0  0  0  0  0  0  0  0  0  0  0
  -13.1670    0.1060  -22.8220 H   0  0  0  0  0  0  0  0  0  0  0  0
  -12.9650   -2.2580  -24.2000 H   0  0  0  0  0  0  0  0  0  0  0  0
  -11.5390   -3.5470  -25.2340 H   0  0  0  0  0  0  0  0  0  0  0  0
  -10.4900   -4.8520  -24.4470 H   0  0  0  0  0  0  0  0  0  0  0  0
  1  2  2  0  0  0  0
  1 49  1  0  0  0  0
  1 50  1  0  0  0  0
  2  3  1  0  0  0  0
  2 38  1  0  0  0  0
  3  4  1  0  0  0  0
  3 36  1  0  0  0  0
  3 37  1  0  0  0  0
  4  5  1  0  0  0  0
  4 25  1  0  0  0  0
  5  6  2  0  0  0  0
  5  7  1  0  0  0  0
  7  8  1  0  0  0  0
  7 24  1  0  0  0  0
  8  9  2  0  0  0  0
  8 17  1  0  0  0  0
  9 10  1  0  0  0  0
  9 23  1  0  0  0  0
 10 11  2  0  0  0  0
 11 12  1  0  0  0  0
 11 22  1  0  0  0  0
 12 13  2  0  0  0  0
 12 17  1  0  0  0  0
 13 14  1  0  0  0  0
 13 21  1  0  0  0  0
 14 15  2  0  0  0  0
 14 20  1  0  0  0  0
 15 16  1  0  0  0  0
 15 19  1  0  0  0  0
 16 17  2  0  0  0  0
 16 18  1  0  0  0  0
 25 26  2  0  0  0  0
 25 31  1  0  0  0  0
 26 27  1  0  0  0  0
 26 35  1  0  0  0  0
 27 28  2  0  0  0  0
 27 34  1  0  0  0  0
 28 29  1  0  0  0  0
 28 33  1  0  0  0  0
 29 30  1  0  0  0  0
 29 31  2  0  0  0  0
 31 32  1  0  0  0  0
 38 39  2  0  0  0  0
 38 40  1  0  0  0  0
 40 41  1  0  0  0  0
 40 48  1  0  0  0  0
 41 42  1  0  0  0  0
 41 46  1  0  0  0  0
 41 47  1  0  0  0  0
 42 43  1  0  0  0  0
 42 44  1  0  0  0  0
 42 45  1  0  0  0  0
M  END
>  <MODEL>
       4

$$$$
