best_conformers_47.pdb
 OpenBabel01292518153D

 58 63  0  0  1  0  0  0  0  0999 V2000
   -8.4990   -0.3700  -21.2690 O   0  0  0  0  0  0  0  0  0  0  0  0
   -7.7940   -1.1950  -21.8240 C   0  0  0  0  0  0  0  0  0  0  0  0
   -6.8170   -2.0600  -21.0210 C   0  0  0  0  0  0  0  0  0  0  0  0
   -6.1340   -1.2260  -19.9730 C   0  0  0  0  0  0  0  0  0  0  0  0
   -6.5170   -1.2890  -18.6630 C   0  0  0  0  0  0  0  0  0  0  0  0
   -6.0260   -0.5180  -17.6580 N   0  0  0  0  0  0  0  0  0  0  0  0
   -5.1070    0.3600  -17.9920 C   0  0  0  0  0  0  0  0  0  0  0  0
   -4.6180    0.5450  -19.3140 C   0  0  0  0  0  0  0  0  0  0  0  0
   -3.6370    1.5200  -19.6260 C   0  0  0  0  0  0  0  0  0  0  0  0
   -3.1960    1.6830  -20.9090 C   0  0  0  0  0  0  0  0  0  0  0  0
   -3.7250    0.8780  -21.9480 C   0  0  0  0  0  0  0  0  0  0  0  0
   -4.6800   -0.0700  -21.6730 C   0  0  0  0  0  0  0  0  0  0  0  0
   -5.1490   -0.2670  -20.3470 C   0  0  0  0  0  0  0  0  0  0  0  0
   -5.0870   -0.6710  -22.4840 H   0  0  0  0  0  0  0  0  0  0  0  0
   -3.3710    1.0210  -22.9660 H   0  0  0  0  0  0  0  0  0  0  0  0
   -2.4470    2.4350  -21.1440 H   0  0  0  0  0  0  0  0  0  0  0  0
   -3.2530    2.1410  -18.8190 H   0  0  0  0  0  0  0  0  0  0  0  0
   -4.7000    0.9860  -17.1960 H   0  0  0  0  0  0  0  0  0  0  0  0
   -7.2840   -2.0030  -18.3580 H   0  0  0  0  0  0  0  0  0  0  0  0
   -7.3840   -2.8710  -20.5470 H   0  0  0  0  0  0  0  0  0  0  0  0
   -6.0930   -2.5080  -21.7060 H   0  0  0  0  0  0  0  0  0  0  0  0
   -7.7840   -1.3670  -23.2070 N   0  0  0  0  0  0  0  0  0  0  0  0
   -7.7690   -2.6650  -23.8640 C   0  0  0  0  0  0  0  0  0  0  0  0
   -9.1460   -3.2150  -24.2090 C   0  0  0  0  0  0  0  0  0  0  0  0
  -10.1600   -3.2940  -23.2500 C   0  0  0  0  0  0  0  0  0  0  0  0
  -11.3890   -3.8560  -23.5820 C   0  0  0  0  0  0  0  0  0  0  0  0
  -11.6030   -4.3880  -24.8470 C   0  0  0  0  0  0  0  0  0  0  0  0
  -10.5900   -4.3290  -25.7890 C   0  0  0  0  0  0  0  0  0  0  0  0
  -10.8510   -5.0920  -27.3350 Cl  0  0  0  0  0  0  0  0  0  0  0  0
   -9.3810   -3.7060  -25.4950 C   0  0  0  0  0  0  0  0  0  0  0  0
   -8.6270   -3.5900  -26.2710 H   0  0  0  0  0  0  0  0  0  0  0  0
  -12.5410   -4.8610  -25.1060 H   0  0  0  0  0  0  0  0  0  0  0  0
  -12.1840   -3.9080  -22.8440 H   0  0  0  0  0  0  0  0  0  0  0  0
   -9.9930   -2.9730  -22.2230 H   0  0  0  0  0  0  0  0  0  0  0  0
   -7.2540   -3.3670  -23.2040 H   0  0  0  0  0  0  0  0  0  0  0  0
   -7.1720   -2.6030  -24.7790 H   0  0  0  0  0  0  0  0  0  0  0  0
   -8.1270   -0.2030  -23.9780 C   0  0  2  0  0  0  0  0  0  0  0  0
   -7.2020    1.0070  -23.7900 C   0  0  0  0  0  0  0  0  0  0  0  0
   -7.8910    1.9820  -24.7060 N   0  3  1  0  0  0  0  0  0  0  0  0
   -7.0550    2.5920  -25.7430 C   0  0  0  0  0  0  0  0  0  0  0  0
   -7.5200    3.8700  -26.3600 C   0  0  0  0  0  0  0  0  0  0  0  0
   -6.3360    3.8590  -25.4200 C   0  0  0  0  0  0  0  0  0  0  0  0
   -5.3430    4.0130  -25.8290 H   0  0  0  0  0  0  0  0  0  0  0  0
   -6.4820    4.2320  -24.4110 H   0  0  0  0  0  0  0  0  0  0  0  0
   -7.3380    4.0220  -27.4190 H   0  0  0  0  0  0  0  0  0  0  0  0
   -8.4610    4.2720  -25.9950 H   0  0  0  0  0  0  0  0  0  0  0  0
   -6.5530    1.8950  -26.3950 H   0  0  0  0  0  0  0  0  0  0  0  0
   -9.0200    1.1090  -25.2280 C   0  0  2  0  0  0  0  0  0  0  0  0
   -9.5120    0.4920  -23.9120 C   0  0  0  0  0  0  0  0  0  0  0  0
  -10.3360   -0.2110  -24.0090 H   0  0  0  0  0  0  0  0  0  0  0  0
   -9.6640    1.1890  -23.0820 H   0  0  0  0  0  0  0  0  0  0  0  0
   -8.3000   -0.2170  -25.5110 C   0  0  0  0  0  0  0  0  0  0  0  0
   -8.9670   -1.0000  -25.8530 H   0  0  0  0  0  0  0  0  0  0  0  0
   -7.3920   -0.1910  -26.1230 H   0  0  0  0  0  0  0  0  0  0  0  0
   -9.6550    1.6100  -25.9530 H   0  0  0  0  0  0  0  0  0  0  0  0
   -8.2940    2.7510  -24.1380 H   0  0  0  0  0  0  0  0  0  0  0  0
   -6.1800    0.8310  -24.1190 H   0  0  0  0  0  0  0  0  0  0  0  0
   -7.2080    1.3600  -22.7610 H   0  0  0  0  0  0  0  0  0  0  0  0
  1  2  2  0  0  0  0
  2  3  1  0  0  0  0
  2 22  1  0  0  0  0
  3  4  1  0  0  0  0
  3 20  1  0  0  0  0
  3 21  1  0  0  0  0
  4  5  2  0  0  0  0
  4 13  1  0  0  0  0
  5  6  1  0  0  0  0
  5 19  1  0  0  0  0
  6  7  2  0  0  0  0
  7  8  1  0  0  0  0
  7 18  1  0  0  0  0
  8  9  2  0  0  0  0
  8 13  1  0  0  0  0
  9 10  1  0  0  0  0
  9 17  1  0  0  0  0
 10 11  2  0  0  0  0
 10 16  1  0  0  0  0
 11 12  1  0  0  0  0
 11 15  1  0  0  0  0
 12 13  2  0  0  0  0
 12 14  1  0  0  0  0
 22 23  1  0  0  0  0
 23 24  1  0  0  0  0
 23 35  1  0  0  0  0
 23 36  1  0  0  0  0
 24 25  2  0  0  0  0
 24 30  1  0  0  0  0
 25 26  1  0  0  0  0
 25 34  1  0  0  0  0
 26 27  2  0  0  0  0
 26 33  1  0  0  0  0
 27 28  1  0  0  0  0
 27 32  1  0  0  0  0
 28 29  1  0  0  0  0
 28 30  2  0  0  0  0
 30 31  1  0  0  0  0
 37 22  1  1  0  0  0
 37 38  1  0  0  0  0
 37 49  1  0  0  0  0
 37 52  1  0  0  0  0
 38 39  1  0  0  0  0
 38 57  1  0  0  0  0
 38 58  1  0  0  0  0
 39 40  1  0  0  0  0
 39 48  1  0  0  0  0
 39 56  1  1  0  0  0
 40 41  1  0  0  0  0
 40 42  1  0  0  0  0
 40 47  1  0  0  0  0
 41 42  1  0  0  0  0
 41 45  1  0  0  0  0
 41 46  1  0  0  0  0
 42 43  1  0  0  0  0
 42 44  1  0  0  0  0
 48 49  1  0  0  0  0
 48 52  1  0  0  0  0
 48 55  1  6  0  0  0
 49 50  1  0  0  0  0
 49 51  1  0  0  0  0
 52 53  1  0  0  0  0
 52 54  1  0  0  0  0
M  CHG  1  39   1
M  END
>  <MODEL>
       1

$$$$
best_conformers_47.pdb
 OpenBabel01292518153D

 58 63  0  0  1  0  0  0  0  0999 V2000
   -8.5580   -0.4850  -21.2780 O   0  0  0  0  0  0  0  0  0  0  0  0
   -7.8230   -1.2770  -21.8360 C   0  0  0  0  0  0  0  0  0  0  0  0
   -6.7940   -2.0850  -21.0260 C   0  0  0  0  0  0  0  0  0  0  0  0
   -6.1320   -1.2130  -19.9870 C   0  0  0  0  0  0  0  0  0  0  0  0
   -6.5110   -1.2740  -18.6740 C   0  0  0  0  0  0  0  0  0  0  0  0
   -6.0140   -0.5060  -17.6670 N   0  0  0  0  0  0  0  0  0  0  0  0
   -5.0940    0.3700  -17.9990 C   0  0  0  0  0  0  0  0  0  0  0  0
   -4.6070    0.5570  -19.3230 C   0  0  0  0  0  0  0  0  0  0  0  0
   -3.6170    1.5280  -19.6320 C   0  0  0  0  0  0  0  0  0  0  0  0
   -3.1790    1.6910  -20.9180 C   0  0  0  0  0  0  0  0  0  0  0  0
   -3.7120    0.8870  -21.9520 C   0  0  0  0  0  0  0  0  0  0  0  0
   -4.6680   -0.0600  -21.6800 C   0  0  0  0  0  0  0  0  0  0  0  0
   -5.1440   -0.2530  -20.3540 C   0  0  0  0  0  0  0  0  0  0  0  0
   -5.0590   -0.6690  -22.4910 H   0  0  0  0  0  0  0  0  0  0  0  0
   -3.3580    1.0280  -22.9700 H   0  0  0  0  0  0  0  0  0  0  0  0
   -2.4270    2.4410  -21.1550 H   0  0  0  0  0  0  0  0  0  0  0  0
   -3.2190    2.1470  -18.8290 H   0  0  0  0  0  0  0  0  0  0  0  0
   -4.6860    0.9930  -17.2010 H   0  0  0  0  0  0  0  0  0  0  0  0
   -7.2750   -1.9890  -18.3660 H   0  0  0  0  0  0  0  0  0  0  0  0
   -7.3300   -2.9010  -20.5280 H   0  0  0  0  0  0  0  0  0  0  0  0
   -6.0450   -2.5370  -21.6850 H   0  0  0  0  0  0  0  0  0  0  0  0
   -7.8320   -1.4690  -23.2220 N   0  0  0  0  0  0  0  0  0  0  0  0
   -7.8430   -2.7900  -23.8500 C   0  0  0  0  0  0  0  0  0  0  0  0
   -9.2280   -3.3170  -24.1770 C   0  0  0  0  0  0  0  0  0  0  0  0
   -9.5470   -3.7860  -25.4510 C   0  0  0  0  0  0  0  0  0  0  0  0
  -10.8190   -4.2760  -25.7280 C   0  0  0  0  0  0  0  0  0  0  0  0
  -11.7880   -4.3110  -24.7360 C   0  0  0  0  0  0  0  0  0  0  0  0
  -11.4650   -3.8380  -23.4740 C   0  0  0  0  0  0  0  0  0  0  0  0
  -12.6960   -3.7860  -22.2500 Cl  0  0  0  0  0  0  0  0  0  0  0  0
  -10.1990   -3.3580  -23.1790 C   0  0  0  0  0  0  0  0  0  0  0  0
   -9.9860   -3.0280  -22.1660 H   0  0  0  0  0  0  0  0  0  0  0  0
  -12.7790   -4.7010  -24.9270 H   0  0  0  0  0  0  0  0  0  0  0  0
  -11.0560   -4.6350  -26.7240 H   0  0  0  0  0  0  0  0  0  0  0  0
   -8.7970   -3.7750  -26.2400 H   0  0  0  0  0  0  0  0  0  0  0  0
   -7.3470   -3.4880  -23.1710 H   0  0  0  0  0  0  0  0  0  0  0  0
   -7.2430   -2.7440  -24.7620 H   0  0  0  0  0  0  0  0  0  0  0  0
   -8.1420   -0.3110  -24.0300 C   0  0  2  0  0  0  0  0  0  0  0  0
   -7.1790    0.8910  -23.9150 C   0  0  0  0  0  0  0  0  0  0  0  0
   -7.8650    1.8480  -24.8740 N   0  3  1  0  0  0  0  0  0  0  0  0
   -7.0290    2.3910  -25.9500 C   0  0  0  0  0  0  0  0  0  0  0  0
   -6.2820    3.6580  -25.7030 C   0  0  0  0  0  0  0  0  0  0  0  0
   -7.4680    3.6520  -26.6210 C   0  0  0  0  0  0  0  0  0  0  0  0
   -8.3860    4.0940  -26.2520 H   0  0  0  0  0  0  0  0  0  0  0  0
   -7.2900    3.7690  -27.6830 H   0  0  0  0  0  0  0  0  0  0  0  0
   -5.3010    3.7700  -26.1450 H   0  0  0  0  0  0  0  0  0  0  0  0
   -6.4090    4.0910  -24.7190 H   0  0  0  0  0  0  0  0  0  0  0  0
   -6.5470    1.6480  -26.5660 H   0  0  0  0  0  0  0  0  0  0  0  0
   -9.0100    0.9810  -25.3280 C   0  0  2  0  0  0  0  0  0  0  0  0
   -9.5010    0.4210  -23.9900 C   0  0  0  0  0  0  0  0  0  0  0  0
   -9.6330    1.1440  -23.1770 H   0  0  0  0  0  0  0  0  0  0  0  0
  -10.3480   -0.2520  -24.0880 H   0  0  0  0  0  0  0  0  0  0  0  0
   -8.3140   -0.3650  -25.5690 C   0  0  0  0  0  0  0  0  0  0  0  0
   -9.0030   -1.1210  -25.9210 H   0  0  0  0  0  0  0  0  0  0  0  0
   -7.3940   -0.3580  -26.1640 H   0  0  0  0  0  0  0  0  0  0  0  0
   -9.6690    1.4520  -26.0530 H   0  0  0  0  0  0  0  0  0  0  0  0
   -8.2420    2.6570  -24.3510 H   0  0  0  0  0  0  0  0  0  0  0  0
   -7.1350    1.3210  -22.9140 H   0  0  0  0  0  0  0  0  0  0  0  0
   -6.1740    0.6950  -24.2860 H   0  0  0  0  0  0  0  0  0  0  0  0
  1  2  2  0  0  0  0
  2  3  1  0  0  0  0
  2 22  1  0  0  0  0
  3  4  1  0  0  0  0
  3 20  1  0  0  0  0
  3 21  1  0  0  0  0
  4  5  2  0  0  0  0
  4 13  1  0  0  0  0
  5  6  1  0  0  0  0
  5 19  1  0  0  0  0
  6  7  2  0  0  0  0
  7  8  1  0  0  0  0
  7 18  1  0  0  0  0
  8  9  2  0  0  0  0
  8 13  1  0  0  0  0
  9 10  1  0  0  0  0
  9 17  1  0  0  0  0
 10 11  2  0  0  0  0
 10 16  1  0  0  0  0
 11 12  1  0  0  0  0
 11 15  1  0  0  0  0
 12 13  2  0  0  0  0
 12 14  1  0  0  0  0
 22 23  1  0  0  0  0
 23 24  1  0  0  0  0
 23 35  1  0  0  0  0
 23 36  1  0  0  0  0
 24 25  2  0  0  0  0
 24 30  1  0  0  0  0
 25 26  1  0  0  0  0
 25 34  1  0  0  0  0
 26 27  2  0  0  0  0
 26 33  1  0  0  0  0
 27 28  1  0  0  0  0
 27 32  1  0  0  0  0
 28 29  1  0  0  0  0
 28 30  2  0  0  0  0
 30 31  1  0  0  0  0
 37 22  1  1  0  0  0
 37 38  1  0  0  0  0
 37 49  1  0  0  0  0
 37 52  1  0  0  0  0
 38 39  1  0  0  0  0
 38 57  1  0  0  0  0
 38 58  1  0  0  0  0
 39 40  1  0  0  0  0
 39 48  1  0  0  0  0
 39 56  1  1  0  0  0
 40 41  1  0  0  0  0
 40 42  1  0  0  0  0
 40 47  1  0  0  0  0
 41 42  1  0  0  0  0
 41 45  1  0  0  0  0
 41 46  1  0  0  0  0
 42 43  1  0  0  0  0
 42 44  1  0  0  0  0
 48 49  1  0  0  0  0
 48 52  1  0  0  0  0
 48 55  1  6  0  0  0
 49 50  1  0  0  0  0
 49 51  1  0  0  0  0
 52 53  1  0  0  0  0
 52 54  1  0  0  0  0
M  CHG  1  39   1
M  END
>  <MODEL>
       2

$$$$
best_conformers_47.pdb
 OpenBabel01292518153D

 58 63  0  0  1  0  0  0  0  0999 V2000
   -8.5000   -0.4600  -21.2830 O   0  0  0  0  0  0  0  0  0  0  0  0
   -7.8990   -1.3900  -21.7940 C   0  0  0  0  0  0  0  0  0  0  0  0
   -6.7740   -2.0960  -21.0470 C   0  0  0  0  0  0  0  0  0  0  0  0
   -6.1410   -1.2250  -20.0090 C   0  0  0  0  0  0  0  0  0  0  0  0
   -6.5440   -1.2910  -18.7030 C   0  0  0  0  0  0  0  0  0  0  0  0
   -6.0600   -0.5270  -17.6870 N   0  0  0  0  0  0  0  0  0  0  0  0
   -5.1310    0.3450  -18.0070 C   0  0  0  0  0  0  0  0  0  0  0  0
   -4.6260    0.5360  -19.3250 C   0  0  0  0  0  0  0  0  0  0  0  0
   -3.6360    1.5080  -19.6230 C   0  0  0  0  0  0  0  0  0  0  0  0
   -3.1850    1.6740  -20.9040 C   0  0  0  0  0  0  0  0  0  0  0  0
   -3.7080    0.8770  -21.9490 C   0  0  0  0  0  0  0  0  0  0  0  0
   -4.6680   -0.0700  -21.6900 C   0  0  0  0  0  0  0  0  0  0  0  0
   -5.1470   -0.2670  -20.3650 C   0  0  0  0  0  0  0  0  0  0  0  0
   -5.0660   -0.6660  -22.5070 H   0  0  0  0  0  0  0  0  0  0  0  0
   -3.3510    1.0220  -22.9670 H   0  0  0  0  0  0  0  0  0  0  0  0
   -2.4320    2.4240  -21.1290 H   0  0  0  0  0  0  0  0  0  0  0  0
   -3.2560    2.1250  -18.8120 H   0  0  0  0  0  0  0  0  0  0  0  0
   -4.7280    0.9610  -17.2020 H   0  0  0  0  0  0  0  0  0  0  0  0
   -7.3160   -2.0070  -18.4200 H   0  0  0  0  0  0  0  0  0  0  0  0
   -6.0350   -2.4560  -21.7650 H   0  0  0  0  0  0  0  0  0  0  0  0
   -7.2370   -2.9690  -20.5640 H   0  0  0  0  0  0  0  0  0  0  0  0
   -8.2410   -1.8970  -23.0360 N   0  0  0  0  0  0  0  0  0  0  0  0
   -7.5210   -2.9360  -23.7610 C   0  0  0  0  0  0  0  0  0  0  0  0
   -6.2620   -2.4860  -24.4980 C   0  0  0  0  0  0  0  0  0  0  0  0
   -5.2000   -3.3860  -24.6300 C   0  0  0  0  0  0  0  0  0  0  0  0
   -4.0180   -3.0060  -25.2590 C   0  0  0  0  0  0  0  0  0  0  0  0
   -3.8630   -1.7230  -25.7690 C   0  0  0  0  0  0  0  0  0  0  0  0
   -4.9120   -0.8250  -25.6170 C   0  0  0  0  0  0  0  0  0  0  0  0
   -4.7370    0.8470  -26.1090 Cl  0  0  0  0  0  0  0  0  0  0  0  0
   -6.1060   -1.1970  -25.0110 C   0  0  0  0  0  0  0  0  0  0  0  0
   -6.8960   -0.4510  -24.9520 H   0  0  0  0  0  0  0  0  0  0  0  0
   -2.9500   -1.4230  -26.2710 H   0  0  0  0  0  0  0  0  0  0  0  0
   -3.1900   -3.7050  -25.3380 H   0  0  0  0  0  0  0  0  0  0  0  0
   -5.2880   -4.3930  -24.2200 H   0  0  0  0  0  0  0  0  0  0  0  0
   -7.2610   -3.7450  -23.0670 H   0  0  0  0  0  0  0  0  0  0  0  0
   -8.2140   -3.3870  -24.4740 H   0  0  0  0  0  0  0  0  0  0  0  0
   -9.4510   -1.3580  -23.5930 C   0  0  2  0  0  0  0  0  0  0  0  0
  -10.7800   -1.6650  -22.8710 C   0  0  0  0  0  0  0  0  0  0  0  0
  -11.7220   -0.9410  -23.8080 N   0  3  1  0  0  0  0  0  0  0  0  0
  -12.6930    0.0030  -23.2480 C   0  0  0  0  0  0  0  0  0  0  0  0
  -13.8290    0.3900  -24.1420 C   0  0  0  0  0  0  0  0  0  0  0  0
  -14.0680   -0.5110  -22.9600 C   0  0  0  0  0  0  0  0  0  0  0  0
  -14.6220   -0.0860  -22.1350 H   0  0  0  0  0  0  0  0  0  0  0  0
  -14.2080   -1.5750  -23.1300 H   0  0  0  0  0  0  0  0  0  0  0  0
  -14.1950    1.4070  -24.0610 H   0  0  0  0  0  0  0  0  0  0  0  0
  -13.8550   -0.0460  -25.1380 H   0  0  0  0  0  0  0  0  0  0  0  0
  -12.2690    0.7650  -22.6040 H   0  0  0  0  0  0  0  0  0  0  0  0
  -10.7150   -0.3210  -24.7620 C   0  0  2  0  0  0  0  0  0  0  0  0
   -9.8680   -1.5670  -25.0650 C   0  0  0  0  0  0  0  0  0  0  0  0
   -9.0570   -1.4180  -25.7760 H   0  0  0  0  0  0  0  0  0  0  0  0
  -10.4340   -2.4850  -25.2790 H   0  0  0  0  0  0  0  0  0  0  0  0
   -9.5900    0.1580  -23.8470 C   0  0  0  0  0  0  0  0  0  0  0  0
   -9.8220    0.7700  -22.9700 H   0  0  0  0  0  0  0  0  0  0  0  0
   -8.7460    0.5580  -24.4050 H   0  0  0  0  0  0  0  0  0  0  0  0
  -11.1530    0.3230  -25.5130 H   0  0  0  0  0  0  0  0  0  0  0  0
  -12.2540   -1.6670  -24.3270 H   0  0  0  0  0  0  0  0  0  0  0  0
  -11.0130   -2.7310  -22.8340 H   0  0  0  0  0  0  0  0  0  0  0  0
  -10.8220   -1.2340  -21.8750 H   0  0  0  0  0  0  0  0  0  0  0  0
  1  2  2  0  0  0  0
  2  3  1  0  0  0  0
  2 22  1  0  0  0  0
  3  4  1  0  0  0  0
  3 20  1  0  0  0  0
  3 21  1  0  0  0  0
  4  5  2  0  0  0  0
  4 13  1  0  0  0  0
  5  6  1  0  0  0  0
  5 19  1  0  0  0  0
  6  7  2  0  0  0  0
  7  8  1  0  0  0  0
  7 18  1  0  0  0  0
  8  9  2  0  0  0  0
  8 13  1  0  0  0  0
  9 10  1  0  0  0  0
  9 17  1  0  0  0  0
 10 11  2  0  0  0  0
 10 16  1  0  0  0  0
 11 12  1  0  0  0  0
 11 15  1  0  0  0  0
 12 13  2  0  0  0  0
 12 14  1  0  0  0  0
 22 23  1  0  0  0  0
 23 24  1  0  0  0  0
 23 35  1  0  0  0  0
 23 36  1  0  0  0  0
 24 25  2  0  0  0  0
 24 30  1  0  0  0  0
 25 26  1  0  0  0  0
 25 34  1  0  0  0  0
 26 27  2  0  0  0  0
 26 33  1  0  0  0  0
 27 28  1  0  0  0  0
 27 32  1  0  0  0  0
 28 29  1  0  0  0  0
 28 30  2  0  0  0  0
 30 31  1  0  0  0  0
 37 22  1  1  0  0  0
 37 38  1  0  0  0  0
 37 49  1  0  0  0  0
 37 52  1  0  0  0  0
 38 39  1  0  0  0  0
 38 57  1  0  0  0  0
 38 58  1  0  0  0  0
 39 40  1  0  0  0  0
 39 48  1  0  0  0  0
 39 56  1  6  0  0  0
 40 41  1  0  0  0  0
 40 42  1  0  0  0  0
 40 47  1  0  0  0  0
 41 42  1  0  0  0  0
 41 45  1  0  0  0  0
 41 46  1  0  0  0  0
 42 43  1  0  0  0  0
 42 44  1  0  0  0  0
 48 49  1  0  0  0  0
 48 52  1  0  0  0  0
 48 55  1  6  0  0  0
 49 50  1  0  0  0  0
 49 51  1  0  0  0  0
 52 53  1  0  0  0  0
 52 54  1  0  0  0  0
M  CHG  1  39   1
M  END
>  <MODEL>
       3

$$$$
best_conformers_47.pdb
 OpenBabel01292518153D

 58 63  0  0  1  0  0  0  0  0999 V2000
   -4.8650   -3.6900  -20.6710 O   0  0  0  0  0  0  0  0  0  0  0  0
   -5.7660   -3.3720  -21.4260 C   0  0  0  0  0  0  0  0  0  0  0  0
   -6.6930   -2.1960  -21.0480 C   0  0  0  0  0  0  0  0  0  0  0  0
   -6.1110   -1.2640  -20.0160 C   0  0  0  0  0  0  0  0  0  0  0  0
   -6.5050   -1.3210  -18.7080 C   0  0  0  0  0  0  0  0  0  0  0  0
   -6.0330   -0.5430  -17.6950 N   0  0  0  0  0  0  0  0  0  0  0  0
   -5.1150    0.3390  -18.0150 C   0  0  0  0  0  0  0  0  0  0  0  0
   -4.6100    0.5220  -19.3320 C   0  0  0  0  0  0  0  0  0  0  0  0
   -3.6250    1.5010  -19.6250 C   0  0  0  0  0  0  0  0  0  0  0  0
   -3.1680    1.6590  -20.9040 C   0  0  0  0  0  0  0  0  0  0  0  0
   -3.6800    0.8500  -21.9460 C   0  0  0  0  0  0  0  0  0  0  0  0
   -4.6350   -0.1040  -21.6930 C   0  0  0  0  0  0  0  0  0  0  0  0
   -5.1220   -0.2950  -20.3700 C   0  0  0  0  0  0  0  0  0  0  0  0
   -5.0170   -0.7160  -22.5090 H   0  0  0  0  0  0  0  0  0  0  0  0
   -3.3160    0.9940  -22.9610 H   0  0  0  0  0  0  0  0  0  0  0  0
   -2.4170    2.4110  -21.1340 H   0  0  0  0  0  0  0  0  0  0  0  0
   -3.2570    2.1250  -18.8130 H   0  0  0  0  0  0  0  0  0  0  0  0
   -4.7210    0.9690  -17.2140 H   0  0  0  0  0  0  0  0  0  0  0  0
   -7.2700   -2.0350  -18.4030 H   0  0  0  0  0  0  0  0  0  0  0  0
   -6.9950   -1.6250  -21.9280 H   0  0  0  0  0  0  0  0  0  0  0  0
   -7.6130   -2.6420  -20.6470 H   0  0  0  0  0  0  0  0  0  0  0  0
   -6.0520   -4.0670  -22.6010 N   0  0  0  0  0  0  0  0  0  0  0  0
   -6.9120   -3.4870  -23.6520 C   0  0  0  0  0  0  0  0  0  0  0  0
   -6.3130   -2.2850  -24.3900 C   0  0  0  0  0  0  0  0  0  0  0  0
   -5.0270   -2.3670  -24.9250 C   0  0  0  0  0  0  0  0  0  0  0  0
   -4.4630   -1.2930  -25.6040 C   0  0  0  0  0  0  0  0  0  0  0  0
   -5.1620   -0.1010  -25.7620 C   0  0  0  0  0  0  0  0  0  0  0  0
   -6.4460   -0.0190  -25.2380 C   0  0  0  0  0  0  0  0  0  0  0  0
   -7.3360    1.4730  -25.3980 Cl  0  0  0  0  0  0  0  0  0  0  0  0
   -7.0300   -1.0950  -24.5720 C   0  0  0  0  0  0  0  0  0  0  0  0
   -8.0480   -0.9690  -24.2090 H   0  0  0  0  0  0  0  0  0  0  0  0
   -4.7310    0.7550  -26.2730 H   0  0  0  0  0  0  0  0  0  0  0  0
   -3.4630   -1.3880  -26.0160 H   0  0  0  0  0  0  0  0  0  0  0  0
   -4.4520   -3.2830  -24.8130 H   0  0  0  0  0  0  0  0  0  0  0  0
   -7.1430   -4.2830  -24.3620 H   0  0  0  0  0  0  0  0  0  0  0  0
   -7.8720   -3.1980  -23.2140 H   0  0  0  0  0  0  0  0  0  0  0  0
   -5.4280   -5.3810  -22.7800 C   0  0  2  0  0  0  0  0  0  0  0  0
   -5.7520   -6.1850  -24.0390 C   0  0  0  0  0  0  0  0  0  0  0  0
   -4.8810   -7.4300  -23.7820 N   0  3  1  0  0  0  0  0  0  0  0  0
   -3.8590   -7.8500  -24.7720 C   0  0  0  0  0  0  0  0  0  0  0  0
   -3.3120   -6.9680  -25.8610 C   0  0  0  0  0  0  0  0  0  0  0  0
   -4.2510   -8.0960  -26.1930 C   0  0  0  0  0  0  0  0  0  0  0  0
   -3.8820   -8.9920  -26.6820 H   0  0  0  0  0  0  0  0  0  0  0  0
   -5.2740   -7.8450  -26.4590 H   0  0  0  0  0  0  0  0  0  0  0  0
   -2.2620   -7.1020  -26.1010 H   0  0  0  0  0  0  0  0  0  0  0  0
   -3.6500   -5.9440  -25.9700 H   0  0  0  0  0  0  0  0  0  0  0  0
   -3.1110   -8.5110  -24.3430 H   0  0  0  0  0  0  0  0  0  0  0  0
   -4.3090   -7.0380  -22.4370 C   0  0  2  0  0  0  0  0  0  0  0  0
   -5.5360   -6.4930  -21.7010 C   0  0  0  0  0  0  0  0  0  0  0  0
   -6.4230   -7.1410  -21.6700 H   0  0  0  0  0  0  0  0  0  0  0  0
   -5.3170   -6.1060  -20.7100 H   0  0  0  0  0  0  0  0  0  0  0  0
   -3.8920   -5.6110  -22.7230 C   0  0  0  0  0  0  0  0  0  0  0  0
   -3.3210   -5.4890  -23.6500 H   0  0  0  0  0  0  0  0  0  0  0  0
   -3.4110   -5.0760  -21.9280 H   0  0  0  0  0  0  0  0  0  0  0  0
   -3.6260   -7.7780  -22.0260 H   0  0  0  0  0  0  0  0  0  0  0  0
   -5.4960   -8.2570  -23.6640 H   0  0  0  0  0  0  0  0  0  0  0  0
   -5.4320   -5.6780  -24.9440 H   0  0  0  0  0  0  0  0  0  0  0  0
   -6.7930   -6.4910  -24.1280 H   0  0  0  0  0  0  0  0  0  0  0  0
  1  2  2  0  0  0  0
  2  3  1  0  0  0  0
  2 22  1  0  0  0  0
  3  4  1  0  0  0  0
  3 20  1  0  0  0  0
  3 21  1  0  0  0  0
  4  5  2  0  0  0  0
  4 13  1  0  0  0  0
  5  6  1  0  0  0  0
  5 19  1  0  0  0  0
  6  7  2  0  0  0  0
  7  8  1  0  0  0  0
  7 18  1  0  0  0  0
  8  9  2  0  0  0  0
  8 13  1  0  0  0  0
  9 10  1  0  0  0  0
  9 17  1  0  0  0  0
 10 11  2  0  0  0  0
 10 16  1  0  0  0  0
 11 12  1  0  0  0  0
 11 15  1  0  0  0  0
 12 13  2  0  0  0  0
 12 14  1  0  0  0  0
 22 23  1  0  0  0  0
 23 24  1  0  0  0  0
 23 35  1  0  0  0  0
 23 36  1  0  0  0  0
 24 25  2  0  0  0  0
 24 30  1  0  0  0  0
 25 26  1  0  0  0  0
 25 34  1  0  0  0  0
 26 27  2  0  0  0  0
 26 33  1  0  0  0  0
 27 28  1  0  0  0  0
 27 32  1  0  0  0  0
 28 29  1  0  0  0  0
 28 30  2  0  0  0  0
 30 31  1  0  0  0  0
 37 22  1  1  0  0  0
 37 38  1  0  0  0  0
 37 49  1  0  0  0  0
 37 52  1  0  0  0  0
 38 39  1  0  0  0  0
 38 57  1  0  0  0  0
 38 58  1  0  0  0  0
 39 40  1  0  0  0  0
 39 48  1  0  0  0  0
 39 56  1  1  0  0  0
 40 41  1  0  0  0  0
 40 42  1  0  0  0  0
 40 47  1  0  0  0  0
 41 42  1  0  0  0  0
 41 45  1  0  0  0  0
 41 46  1  0  0  0  0
 42 43  1  0  0  0  0
 42 44  1  0  0  0  0
 48 49  1  0  0  0  0
 48 52  1  0  0  0  0
 48 55  1  1  0  0  0
 49 50  1  0  0  0  0
 49 51  1  0  0  0  0
 52 53  1  0  0  0  0
 52 54  1  0  0  0  0
M  CHG  1  39   1
M  END
>  <MODEL>
       4

$$$$
best_conformers_47.pdb
 OpenBabel01292518153D

 58 63  0  0  1  0  0  0  0  0999 V2000
   -8.3010   -0.3260  -21.5300 O   0  0  0  0  0  0  0  0  0  0  0  0
   -7.7310   -1.3120  -21.9460 C   0  0  0  0  0  0  0  0  0  0  0  0
   -6.7820   -2.1040  -21.0230 C   0  0  0  0  0  0  0  0  0  0  0  0
   -6.1360   -1.2130  -19.9920 C   0  0  0  0  0  0  0  0  0  0  0  0
   -6.5130   -1.2740  -18.6790 C   0  0  0  0  0  0  0  0  0  0  0  0
   -6.0170   -0.5060  -17.6700 N   0  0  0  0  0  0  0  0  0  0  0  0
   -5.0960    0.3690  -17.9990 C   0  0  0  0  0  0  0  0  0  0  0  0
   -4.6090    0.5550  -19.3220 C   0  0  0  0  0  0  0  0  0  0  0  0
   -3.6150    1.5240  -19.6300 C   0  0  0  0  0  0  0  0  0  0  0  0
   -3.1740    1.6870  -20.9140 C   0  0  0  0  0  0  0  0  0  0  0  0
   -3.7070    0.8880  -21.9500 C   0  0  0  0  0  0  0  0  0  0  0  0
   -4.6670   -0.0550  -21.6800 C   0  0  0  0  0  0  0  0  0  0  0  0
   -5.1460   -0.2520  -20.3560 C   0  0  0  0  0  0  0  0  0  0  0  0
   -5.0600   -0.6570  -22.4980 H   0  0  0  0  0  0  0  0  0  0  0  0
   -3.3560    1.0290  -22.9690 H   0  0  0  0  0  0  0  0  0  0  0  0
   -2.4190    2.4350  -21.1510 H   0  0  0  0  0  0  0  0  0  0  0  0
   -3.2170    2.1400  -18.8270 H   0  0  0  0  0  0  0  0  0  0  0  0
   -4.6870    0.9920  -17.2000 H   0  0  0  0  0  0  0  0  0  0  0  0
   -7.2740   -1.9900  -18.3660 H   0  0  0  0  0  0  0  0  0  0  0  0
   -6.0190   -2.6290  -21.6100 H   0  0  0  0  0  0  0  0  0  0  0  0
   -7.3780   -2.8770  -20.5190 H   0  0  0  0  0  0  0  0  0  0  0  0
   -7.8680   -1.7560  -23.2630 N   0  0  0  0  0  0  0  0  0  0  0  0
   -7.9260   -3.1660  -23.6540 C   0  0  0  0  0  0  0  0  0  0  0  0
   -6.9580   -3.5240  -24.7580 C   0  0  0  0  0  0  0  0  0  0  0  0
   -7.3670   -4.2580  -25.8700 C   0  0  0  0  0  0  0  0  0  0  0  0
   -6.4700   -4.5660  -26.8870 C   0  0  0  0  0  0  0  0  0  0  0  0
   -5.1490   -4.1540  -26.8090 C   0  0  0  0  0  0  0  0  0  0  0  0
   -4.7510   -3.4310  -25.6960 C   0  0  0  0  0  0  0  0  0  0  0  0
   -3.1090   -2.8760  -25.6210 Cl  0  0  0  0  0  0  0  0  0  0  0  0
   -5.6320   -3.1120  -24.6720 C   0  0  0  0  0  0  0  0  0  0  0  0
   -5.2600   -2.5550  -23.8160 H   0  0  0  0  0  0  0  0  0  0  0  0
   -4.4340   -4.3820  -27.5950 H   0  0  0  0  0  0  0  0  0  0  0  0
   -6.8000   -5.1300  -27.7540 H   0  0  0  0  0  0  0  0  0  0  0  0
   -8.4000   -4.5920  -25.9540 H   0  0  0  0  0  0  0  0  0  0  0  0
   -7.7300   -3.7720  -22.7660 H   0  0  0  0  0  0  0  0  0  0  0  0
   -8.9430   -3.4240  -23.9790 H   0  0  0  0  0  0  0  0  0  0  0  0
   -8.1780   -0.7510  -24.2580 C   0  0  2  0  0  0  0  0  0  0  0  0
   -7.0950    0.3110  -24.5570 C   0  0  0  0  0  0  0  0  0  0  0  0
   -7.8410    1.1360  -25.5860 N   0  3  1  0  0  0  0  0  0  0  0  0
   -7.1620    1.3370  -26.8720 C   0  0  0  0  0  0  0  0  0  0  0  0
   -7.6110    2.4660  -27.7450 C   0  0  0  0  0  0  0  0  0  0  0  0
   -6.2850    2.5330  -27.0410 C   0  0  0  0  0  0  0  0  0  0  0  0
   -5.3850    2.4340  -27.6390 H   0  0  0  0  0  0  0  0  0  0  0  0
   -6.2020    3.1820  -26.1750 H   0  0  0  0  0  0  0  0  0  0  0  0
   -8.4170    3.0810  -27.3580 H   0  0  0  0  0  0  0  0  0  0  0  0
   -7.6130    2.3310  -28.8220 H   0  0  0  0  0  0  0  0  0  0  0  0
   -6.8540    0.4240  -27.3620 H   0  0  0  0  0  0  0  0  0  0  0  0
   -9.1280    0.3600  -25.6590 C   0  0  2  0  0  0  0  0  0  0  0  0
   -9.4290    0.1520  -24.1740 C   0  0  0  0  0  0  0  0  0  0  0  0
   -9.3430    1.0340  -23.5330 H   0  0  0  0  0  0  0  0  0  0  0  0
  -10.3470   -0.4050  -23.9840 H   0  0  0  0  0  0  0  0  0  0  0  0
   -8.6300   -1.0890  -25.7010 C   0  0  0  0  0  0  0  0  0  0  0  0
   -7.8310   -1.3080  -26.4160 H   0  0  0  0  0  0  0  0  0  0  0  0
   -9.4370   -1.8120  -25.7660 H   0  0  0  0  0  0  0  0  0  0  0  0
   -9.8520    0.7660  -26.3590 H   0  0  0  0  0  0  0  0  0  0  0  0
   -8.0390    2.0780  -25.2090 H   0  0  0  0  0  0  0  0  0  0  0  0
   -6.8360    0.9240  -23.6930 H   0  0  0  0  0  0  0  0  0  0  0  0
   -6.1980   -0.0950  -25.0250 H   0  0  0  0  0  0  0  0  0  0  0  0
  1  2  2  0  0  0  0
  2  3  1  0  0  0  0
  2 22  1  0  0  0  0
  3  4  1  0  0  0  0
  3 20  1  0  0  0  0
  3 21  1  0  0  0  0
  4  5  2  0  0  0  0
  4 13  1  0  0  0  0
  5  6  1  0  0  0  0
  5 19  1  0  0  0  0
  6  7  2  0  0  0  0
  7  8  1  0  0  0  0
  7 18  1  0  0  0  0
  8  9  2  0  0  0  0
  8 13  1  0  0  0  0
  9 10  1  0  0  0  0
  9 17  1  0  0  0  0
 10 11  2  0  0  0  0
 10 16  1  0  0  0  0
 11 12  1  0  0  0  0
 11 15  1  0  0  0  0
 12 13  2  0  0  0  0
 12 14  1  0  0  0  0
 22 23  1  0  0  0  0
 23 24  1  0  0  0  0
 23 35  1  0  0  0  0
 23 36  1  0  0  0  0
 24 25  2  0  0  0  0
 24 30  1  0  0  0  0
 25 26  1  0  0  0  0
 25 34  1  0  0  0  0
 26 27  2  0  0  0  0
 26 33  1  0  0  0  0
 27 28  1  0  0  0  0
 27 32  1  0  0  0  0
 28 29  1  0  0  0  0
 28 30  2  0  0  0  0
 30 31  1  0  0  0  0
 37 22  1  1  0  0  0
 37 38  1  0  0  0  0
 37 49  1  0  0  0  0
 37 52  1  0  0  0  0
 38 39  1  0  0  0  0
 38 57  1  0  0  0  0
 38 58  1  0  0  0  0
 39 40  1  0  0  0  0
 39 48  1  0  0  0  0
 39 56  1  1  0  0  0
 40 41  1  0  0  0  0
 40 42  1  0  0  0  0
 40 47  1  0  0  0  0
 41 42  1  0  0  0  0
 41 45  1  0  0  0  0
 41 46  1  0  0  0  0
 42 43  1  0  0  0  0
 42 44  1  0  0  0  0
 48 49  1  0  0  0  0
 48 52  1  0  0  0  0
 48 55  1  6  0  0  0
 49 50  1  0  0  0  0
 49 51  1  0  0  0  0
 52 53  1  0  0  0  0
 52 54  1  0  0  0  0
M  CHG  1  39   1
M  END
>  <MODEL>
       5

$$$$
