best_conformers_79.pdb
 OpenBabel01292518153D

 45 49  0  0  0  0  0  0  0  0999 V2000
   -9.5530   -4.0580  -22.1450 C   0  0  0  0  0  0  0  0  0  0  0  0
   -8.2480   -3.5030  -21.8670 N   0  0  0  0  0  0  0  0  0  0  0  0
   -8.0960   -2.3890  -21.0990 C   0  0  0  0  0  0  0  0  0  0  0  0
   -8.9880   -1.7060  -20.6550 O   0  0  0  0  0  0  0  0  0  0  0  0
   -6.7130   -2.1760  -20.9400 N   0  0  0  0  0  0  0  0  0  0  0  0
   -6.1500   -1.2450  -20.0080 C   0  0  0  0  0  0  0  0  0  0  0  0
   -6.5380   -1.3010  -18.6930 C   0  0  0  0  0  0  0  0  0  0  0  0
   -6.0290   -0.5280  -17.6990 N   0  0  0  0  0  0  0  0  0  0  0  0
   -5.1100    0.3470  -18.0270 C   0  0  0  0  0  0  0  0  0  0  0  0
   -4.6240    0.5360  -19.3500 C   0  0  0  0  0  0  0  0  0  0  0  0
   -3.6270    1.5080  -19.6430 C   0  0  0  0  0  0  0  0  0  0  0  0
   -3.1860    1.6830  -20.9240 C   0  0  0  0  0  0  0  0  0  0  0  0
   -3.7300    0.8970  -21.9650 C   0  0  0  0  0  0  0  0  0  0  0  0
   -4.6930   -0.0470  -21.7070 C   0  0  0  0  0  0  0  0  0  0  0  0
   -5.1620   -0.2690  -20.3830 C   0  0  0  0  0  0  0  0  0  0  0  0
   -5.0990   -0.6420  -22.5200 H   0  0  0  0  0  0  0  0  0  0  0  0
   -3.3840    1.0460  -22.9820 H   0  0  0  0  0  0  0  0  0  0  0  0
   -2.4310    2.4300  -21.1530 H   0  0  0  0  0  0  0  0  0  0  0  0
   -3.2350    2.1150  -18.8300 H   0  0  0  0  0  0  0  0  0  0  0  0
   -4.7070    0.9620  -17.2220 H   0  0  0  0  0  0  0  0  0  0  0  0
   -7.2940   -2.0160  -18.3800 H   0  0  0  0  0  0  0  0  0  0  0  0
   -5.9910   -3.1770  -21.5950 C   0  0  0  0  0  0  0  0  0  0  0  0
   -4.7930   -3.2940  -21.5680 O   0  0  0  0  0  0  0  0  0  0  0  0
   -7.0050   -4.0870  -22.2820 C   0  0  0  0  0  0  0  0  0  0  0  0
   -6.7930   -4.3540  -23.7930 C   0  0  0  0  0  0  0  0  0  0  0  0
   -6.5270   -5.7940  -23.5270 N   0  0  0  0  0  0  0  0  0  0  0  0
   -7.5380   -6.9290  -24.2760 S   0  0  0  0  0  0  0  0  0  0  0  0
   -7.6050   -8.0520  -23.3580 O   0  0  0  0  0  0  0  0  0  0  0  0
   -8.7560   -6.2610  -24.7100 O   0  0  0  0  0  0  0  0  0  0  0  0
   -6.6930   -7.4730  -25.7500 C   0  0  0  0  0  0  0  0  0  0  0  0
   -5.8530   -6.5240  -26.5550 C   0  0  0  0  0  0  0  0  0  0  0  0
   -5.2040   -7.6240  -25.7570 C   0  0  0  0  0  0  0  0  0  0  0  0
   -4.7800   -8.4750  -26.2880 H   0  0  0  0  0  0  0  0  0  0  0  0
   -4.6910   -7.3470  -24.8390 H   0  0  0  0  0  0  0  0  0  0  0  0
   -5.8930   -6.6140  -27.6390 H   0  0  0  0  0  0  0  0  0  0  0  0
   -5.7760   -5.4970  -26.1970 H   0  0  0  0  0  0  0  0  0  0  0  0
   -7.3180   -8.2020  -26.2620 H   0  0  0  0  0  0  0  0  0  0  0  0
   -6.7700   -5.6010  -22.0580 C   0  0  0  0  0  0  0  0  0  0  0  0
   -7.6190   -6.1650  -21.6570 H   0  0  0  0  0  0  0  0  0  0  0  0
   -5.8700   -5.8120  -21.4800 H   0  0  0  0  0  0  0  0  0  0  0  0
   -7.6650   -4.1670  -24.4290 H   0  0  0  0  0  0  0  0  0  0  0  0
   -5.8980   -3.8740  -24.1880 H   0  0  0  0  0  0  0  0  0  0  0  0
  -10.0830   -4.2200  -21.2000 H   0  0  0  0  0  0  0  0  0  0  0  0
  -10.1520   -3.3790  -22.7620 H   0  0  0  0  0  0  0  0  0  0  0  0
   -9.4000   -4.9980  -22.6820 H   0  0  0  0  0  0  0  0  0  0  0  0
  1  2  1  0  0  0  0
  1 43  1  0  0  0  0
  1 44  1  0  0  0  0
  1 45  1  0  0  0  0
  2  3  1  0  0  0  0
  2 24  1  0  0  0  0
  3  4  2  0  0  0  0
  3  5  1  0  0  0  0
  5  6  1  0  0  0  0
  5 22  1  0  0  0  0
  6  7  2  0  0  0  0
  6 15  1  0  0  0  0
  7  8  1  0  0  0  0
  7 21  1  0  0  0  0
  8  9  2  0  0  0  0
  9 10  1  0  0  0  0
  9 20  1  0  0  0  0
 10 11  2  0  0  0  0
 10 15  1  0  0  0  0
 11 12  1  0  0  0  0
 11 19  1  0  0  0  0
 12 13  2  0  0  0  0
 12 18  1  0  0  0  0
 13 14  1  0  0  0  0
 13 17  1  0  0  0  0
 14 15  2  0  0  0  0
 14 16  1  0  0  0  0
 22 23  2  0  0  0  0
 22 24  1  0  0  0  0
 24 25  1  0  0  0  0
 24 38  1  0  0  0  0
 25 26  1  0  0  0  0
 25 41  1  0  0  0  0
 25 42  1  0  0  0  0
 26 27  1  0  0  0  0
 26 38  1  0  0  0  0
 27 28  2  0  0  0  0
 27 29  2  0  0  0  0
 27 30  1  0  0  0  0
 30 31  1  0  0  0  0
 30 32  1  0  0  0  0
 30 37  1  0  0  0  0
 31 32  1  0  0  0  0
 31 35  1  0  0  0  0
 31 36  1  0  0  0  0
 32 33  1  0  0  0  0
 32 34  1  0  0  0  0
 38 39  1  0  0  0  0
 38 40  1  0  0  0  0
M  END
>  <MODEL>
       1

$$$$
best_conformers_79.pdb
 OpenBabel01292518153D

 45 49  0  0  0  0  0  0  0  0999 V2000
   -6.2040   -4.5470  -23.5250 C   0  0  0  0  0  0  0  0  0  0  0  0
   -6.6970   -3.5140  -22.6260 N   0  0  0  0  0  0  0  0  0  0  0  0
   -5.9820   -3.1290  -21.5270 C   0  0  0  0  0  0  0  0  0  0  0  0
   -4.9430   -3.5900  -21.1080 O   0  0  0  0  0  0  0  0  0  0  0  0
   -6.6940   -2.0640  -20.9530 N   0  0  0  0  0  0  0  0  0  0  0  0
   -6.1200   -1.2010  -19.9960 C   0  0  0  0  0  0  0  0  0  0  0  0
   -6.5410   -1.2990  -18.7000 C   0  0  0  0  0  0  0  0  0  0  0  0
   -6.0490   -0.5480  -17.6870 N   0  0  0  0  0  0  0  0  0  0  0  0
   -5.1180    0.3250  -17.9950 C   0  0  0  0  0  0  0  0  0  0  0  0
   -4.6070    0.5340  -19.3110 C   0  0  0  0  0  0  0  0  0  0  0  0
   -3.6170    1.5140  -19.5880 C   0  0  0  0  0  0  0  0  0  0  0  0
   -3.1670    1.6990  -20.8640 C   0  0  0  0  0  0  0  0  0  0  0  0
   -3.6810    0.9200  -21.9260 C   0  0  0  0  0  0  0  0  0  0  0  0
   -4.6400   -0.0330  -21.6890 C   0  0  0  0  0  0  0  0  0  0  0  0
   -5.1200   -0.2500  -20.3630 C   0  0  0  0  0  0  0  0  0  0  0  0
   -5.0400   -0.6140  -22.5160 H   0  0  0  0  0  0  0  0  0  0  0  0
   -3.3210    1.0880  -22.9370 H   0  0  0  0  0  0  0  0  0  0  0  0
   -2.4180    2.4570  -21.0760 H   0  0  0  0  0  0  0  0  0  0  0  0
   -3.2450    2.1140  -18.7640 H   0  0  0  0  0  0  0  0  0  0  0  0
   -4.7220    0.9300  -17.1800 H   0  0  0  0  0  0  0  0  0  0  0  0
   -7.3120   -2.0230  -18.4490 H   0  0  0  0  0  0  0  0  0  0  0  0
   -7.9140   -1.8320  -21.5780 C   0  0  0  0  0  0  0  0  0  0  0  0
   -8.7730   -1.0660  -21.2180 O   0  0  0  0  0  0  0  0  0  0  0  0
   -7.9110   -2.7450  -22.7850 C   0  0  0  0  0  0  0  0  0  0  0  0
   -9.2120   -3.5230  -23.0520 C   0  0  0  0  0  0  0  0  0  0  0  0
   -9.2750   -2.9440  -24.4170 N   0  0  0  0  0  0  0  0  0  0  0  0
   -9.1710   -3.9540  -25.7590 S   0  0  0  0  0  0  0  0  0  0  0  0
   -9.5670   -3.1770  -26.9150 O   0  0  0  0  0  0  0  0  0  0  0  0
   -7.9030   -4.6650  -25.7710 O   0  0  0  0  0  0  0  0  0  0  0  0
  -10.4300   -5.1070  -25.3430 C   0  0  0  0  0  0  0  0  0  0  0  0
  -11.4500   -5.4780  -26.3730 C   0  0  0  0  0  0  0  0  0  0  0  0
  -11.8200   -4.5470  -25.2670 C   0  0  0  0  0  0  0  0  0  0  0  0
  -11.8980   -3.4970  -25.5360 H   0  0  0  0  0  0  0  0  0  0  0  0
  -12.4600   -4.8580  -24.4460 H   0  0  0  0  0  0  0  0  0  0  0  0
  -11.3200   -5.0520  -27.3620 H   0  0  0  0  0  0  0  0  0  0  0  0
  -11.8240   -6.4930  -26.3370 H   0  0  0  0  0  0  0  0  0  0  0  0
  -10.0760   -5.8630  -24.6470 H   0  0  0  0  0  0  0  0  0  0  0  0
   -8.1470   -2.0260  -24.1270 C   0  0  0  0  0  0  0  0  0  0  0  0
   -8.5380   -1.0180  -23.9720 H   0  0  0  0  0  0  0  0  0  0  0  0
   -7.3140   -2.0160  -24.8330 H   0  0  0  0  0  0  0  0  0  0  0  0
   -9.1060   -4.6080  -22.9520 H   0  0  0  0  0  0  0  0  0  0  0  0
  -10.0480   -3.1440  -22.4570 H   0  0  0  0  0  0  0  0  0  0  0  0
   -6.0170   -4.1580  -24.5280 H   0  0  0  0  0  0  0  0  0  0  0  0
   -5.2720   -4.9210  -23.1020 H   0  0  0  0  0  0  0  0  0  0  0  0
   -6.9110   -5.3770  -23.6090 H   0  0  0  0  0  0  0  0  0  0  0  0
  1  2  1  0  0  0  0
  1 43  1  0  0  0  0
  1 44  1  0  0  0  0
  1 45  1  0  0  0  0
  2  3  1  0  0  0  0
  2 24  1  0  0  0  0
  3  4  2  0  0  0  0
  3  5  1  0  0  0  0
  5  6  1  0  0  0  0
  5 22  1  0  0  0  0
  6  7  2  0  0  0  0
  6 15  1  0  0  0  0
  7  8  1  0  0  0  0
  7 21  1  0  0  0  0
  8  9  2  0  0  0  0
  9 10  1  0  0  0  0
  9 20  1  0  0  0  0
 10 11  2  0  0  0  0
 10 15  1  0  0  0  0
 11 12  1  0  0  0  0
 11 19  1  0  0  0  0
 12 13  2  0  0  0  0
 12 18  1  0  0  0  0
 13 14  1  0  0  0  0
 13 17  1  0  0  0  0
 14 15  2  0  0  0  0
 14 16  1  0  0  0  0
 22 23  2  0  0  0  0
 22 24  1  0  0  0  0
 24 25  1  0  0  0  0
 24 38  1  0  0  0  0
 25 26  1  0  0  0  0
 25 41  1  0  0  0  0
 25 42  1  0  0  0  0
 26 27  1  0  0  0  0
 26 38  1  0  0  0  0
 27 28  2  0  0  0  0
 27 29  2  0  0  0  0
 27 30  1  0  0  0  0
 30 31  1  0  0  0  0
 30 32  1  0  0  0  0
 30 37  1  0  0  0  0
 31 32  1  0  0  0  0
 31 35  1  0  0  0  0
 31 36  1  0  0  0  0
 32 33  1  0  0  0  0
 32 34  1  0  0  0  0
 38 39  1  0  0  0  0
 38 40  1  0  0  0  0
M  END
>  <MODEL>
       2

$$$$
best_conformers_79.pdb
 OpenBabel01292518153D

 45 49  0  0  0  0  0  0  0  0999 V2000
   -8.0280   -5.1920  -22.0190 C   0  0  0  0  0  0  0  0  0  0  0  0
   -7.6120   -3.8140  -21.9080 N   0  0  0  0  0  0  0  0  0  0  0  0
   -6.7100   -3.3810  -20.9820 C   0  0  0  0  0  0  0  0  0  0  0  0
   -5.9900   -4.0600  -20.2770 O   0  0  0  0  0  0  0  0  0  0  0  0
   -6.7730   -1.9790  -21.0070 N   0  0  0  0  0  0  0  0  0  0  0  0
   -6.1630   -1.1760  -20.0140 C   0  0  0  0  0  0  0  0  0  0  0  0
   -6.5330   -1.3040  -18.6990 C   0  0  0  0  0  0  0  0  0  0  0  0
   -6.0380   -0.5390  -17.6930 N   0  0  0  0  0  0  0  0  0  0  0  0
   -5.1230    0.3460  -18.0110 C   0  0  0  0  0  0  0  0  0  0  0  0
   -4.6240    0.5340  -19.3310 C   0  0  0  0  0  0  0  0  0  0  0  0
   -3.6240    1.4920  -19.6250 C   0  0  0  0  0  0  0  0  0  0  0  0
   -3.1530    1.6340  -20.8990 C   0  0  0  0  0  0  0  0  0  0  0  0
   -3.6460    0.8260  -21.9450 C   0  0  0  0  0  0  0  0  0  0  0  0
   -4.6170   -0.1090  -21.6940 C   0  0  0  0  0  0  0  0  0  0  0  0
   -5.1400   -0.2560  -20.3770 C   0  0  0  0  0  0  0  0  0  0  0  0
   -4.9940   -0.7320  -22.5020 H   0  0  0  0  0  0  0  0  0  0  0  0
   -3.2650    0.9540  -22.9530 H   0  0  0  0  0  0  0  0  0  0  0  0
   -2.4020    2.3840  -21.1210 H   0  0  0  0  0  0  0  0  0  0  0  0
   -3.2610    2.1100  -18.8130 H   0  0  0  0  0  0  0  0  0  0  0  0
   -4.7140    0.9730  -17.2130 H   0  0  0  0  0  0  0  0  0  0  0  0
   -7.2770   -2.0400  -18.4010 H   0  0  0  0  0  0  0  0  0  0  0  0
   -7.6360   -1.5110  -21.9990 C   0  0  0  0  0  0  0  0  0  0  0  0
   -7.8720   -0.3550  -22.2710 O   0  0  0  0  0  0  0  0  0  0  0  0
   -8.2450   -2.7440  -22.6340 C   0  0  0  0  0  0  0  0  0  0  0  0
   -9.7830   -2.6720  -22.7460 C   0  0  0  0  0  0  0  0  0  0  0  0
   -9.6960   -2.8240  -24.2300 N   0  0  0  0  0  0  0  0  0  0  0  0
  -10.4980   -4.1900  -24.8130 S   0  0  0  0  0  0  0  0  0  0  0  0
   -9.8240   -5.3950  -24.3380 O   0  0  0  0  0  0  0  0  0  0  0  0
  -11.9030   -3.9960  -24.5280 O   0  0  0  0  0  0  0  0  0  0  0  0
  -10.1870   -4.0960  -26.5530 C   0  0  0  0  0  0  0  0  0  0  0  0
   -9.1220   -5.0270  -27.0700 C   0  0  0  0  0  0  0  0  0  0  0  0
  -10.5660   -5.3410  -27.3000 C   0  0  0  0  0  0  0  0  0  0  0  0
  -11.0130   -6.1370  -26.7120 H   0  0  0  0  0  0  0  0  0  0  0  0
  -10.9480   -5.2340  -28.3110 H   0  0  0  0  0  0  0  0  0  0  0  0
   -8.6010   -5.6240  -26.3260 H   0  0  0  0  0  0  0  0  0  0  0  0
   -8.5370   -4.7010  -27.9240 H   0  0  0  0  0  0  0  0  0  0  0  0
  -10.3260   -3.1290  -27.0210 H   0  0  0  0  0  0  0  0  0  0  0  0
   -8.2090   -2.8670  -24.1730 C   0  0  0  0  0  0  0  0  0  0  0  0
   -7.7550   -3.8070  -24.5010 H   0  0  0  0  0  0  0  0  0  0  0  0
   -7.7450   -2.0220  -24.6860 H   0  0  0  0  0  0  0  0  0  0  0  0
  -10.3540   -3.4440  -22.2230 H   0  0  0  0  0  0  0  0  0  0  0  0
  -10.1400   -1.6770  -22.4770 H   0  0  0  0  0  0  0  0  0  0  0  0
   -7.4630   -5.7700  -21.2870 H   0  0  0  0  0  0  0  0  0  0  0  0
   -7.8990   -5.5770  -23.0350 H   0  0  0  0  0  0  0  0  0  0  0  0
   -9.0800   -5.2270  -21.7640 H   0  0  0  0  0  0  0  0  0  0  0  0
  1  2  1  0  0  0  0
  1 43  1  0  0  0  0
  1 44  1  0  0  0  0
  1 45  1  0  0  0  0
  2  3  1  0  0  0  0
  2 24  1  0  0  0  0
  3  4  2  0  0  0  0
  3  5  1  0  0  0  0
  5  6  1  0  0  0  0
  5 22  1  0  0  0  0
  6  7  2  0  0  0  0
  6 15  1  0  0  0  0
  7  8  1  0  0  0  0
  7 21  1  0  0  0  0
  8  9  2  0  0  0  0
  9 10  1  0  0  0  0
  9 20  1  0  0  0  0
 10 11  2  0  0  0  0
 10 15  1  0  0  0  0
 11 12  1  0  0  0  0
 11 19  1  0  0  0  0
 12 13  2  0  0  0  0
 12 18  1  0  0  0  0
 13 14  1  0  0  0  0
 13 17  1  0  0  0  0
 14 15  2  0  0  0  0
 14 16  1  0  0  0  0
 22 23  2  0  0  0  0
 22 24  1  0  0  0  0
 24 25  1  0  0  0  0
 24 38  1  0  0  0  0
 25 26  1  0  0  0  0
 25 41  1  0  0  0  0
 25 42  1  0  0  0  0
 26 27  1  0  0  0  0
 26 38  1  0  0  0  0
 27 28  2  0  0  0  0
 27 29  2  0  0  0  0
 27 30  1  0  0  0  0
 30 31  1  0  0  0  0
 30 32  1  0  0  0  0
 30 37  1  0  0  0  0
 31 32  1  0  0  0  0
 31 35  1  0  0  0  0
 31 36  1  0  0  0  0
 32 33  1  0  0  0  0
 32 34  1  0  0  0  0
 38 39  1  0  0  0  0
 38 40  1  0  0  0  0
M  END
>  <MODEL>
       3

$$$$
best_conformers_79.pdb
 OpenBabel01292518153D

 45 49  0  0  0  0  0  0  0  0999 V2000
   -8.0390   -5.1740  -22.0180 C   0  0  0  0  0  0  0  0  0  0  0  0
   -7.6080   -3.8010  -21.9250 N   0  0  0  0  0  0  0  0  0  0  0  0
   -6.7060   -3.3750  -20.9980 C   0  0  0  0  0  0  0  0  0  0  0  0
   -5.9790   -4.0470  -20.3020 O   0  0  0  0  0  0  0  0  0  0  0  0
   -6.7700   -1.9710  -21.0100 N   0  0  0  0  0  0  0  0  0  0  0  0
   -6.1580   -1.1720  -20.0110 C   0  0  0  0  0  0  0  0  0  0  0  0
   -6.5300   -1.3000  -18.6980 C   0  0  0  0  0  0  0  0  0  0  0  0
   -6.0360   -0.5370  -17.6890 N   0  0  0  0  0  0  0  0  0  0  0  0
   -5.1230    0.3490  -18.0130 C   0  0  0  0  0  0  0  0  0  0  0  0
   -4.6200    0.5410  -19.3310 C   0  0  0  0  0  0  0  0  0  0  0  0
   -3.6220    1.4990  -19.6240 C   0  0  0  0  0  0  0  0  0  0  0  0
   -3.1530    1.6380  -20.8980 C   0  0  0  0  0  0  0  0  0  0  0  0
   -3.6460    0.8280  -21.9410 C   0  0  0  0  0  0  0  0  0  0  0  0
   -4.6140   -0.1050  -21.6910 C   0  0  0  0  0  0  0  0  0  0  0  0
   -5.1370   -0.2500  -20.3740 C   0  0  0  0  0  0  0  0  0  0  0  0
   -4.9930   -0.7300  -22.4960 H   0  0  0  0  0  0  0  0  0  0  0  0
   -3.2630    0.9540  -22.9470 H   0  0  0  0  0  0  0  0  0  0  0  0
   -2.4010    2.3850  -21.1170 H   0  0  0  0  0  0  0  0  0  0  0  0
   -3.2590    2.1130  -18.8100 H   0  0  0  0  0  0  0  0  0  0  0  0
   -4.7190    0.9650  -17.2120 H   0  0  0  0  0  0  0  0  0  0  0  0
   -7.2760   -2.0360  -18.4030 H   0  0  0  0  0  0  0  0  0  0  0  0
   -7.6380   -1.4940  -21.9900 C   0  0  0  0  0  0  0  0  0  0  0  0
   -7.8730   -0.3370  -22.2510 O   0  0  0  0  0  0  0  0  0  0  0  0
   -8.2450   -2.7240  -22.6330 C   0  0  0  0  0  0  0  0  0  0  0  0
   -8.2220   -2.8450  -24.1700 C   0  0  0  0  0  0  0  0  0  0  0  0
   -9.7110   -2.8110  -24.2110 N   0  0  0  0  0  0  0  0  0  0  0  0
  -10.5070   -4.1900  -24.7780 S   0  0  0  0  0  0  0  0  0  0  0  0
  -11.9110   -4.0150  -24.4760 O   0  0  0  0  0  0  0  0  0  0  0  0
   -9.8160   -5.3860  -24.3160 O   0  0  0  0  0  0  0  0  0  0  0  0
  -10.2310   -4.0780  -26.5210 C   0  0  0  0  0  0  0  0  0  0  0  0
   -9.1760   -5.0040  -27.0620 C   0  0  0  0  0  0  0  0  0  0  0  0
  -10.6250   -5.3130  -27.2770 C   0  0  0  0  0  0  0  0  0  0  0  0
  -11.0750   -6.1110  -26.6920 H   0  0  0  0  0  0  0  0  0  0  0  0
  -11.0190   -5.1890  -28.2810 H   0  0  0  0  0  0  0  0  0  0  0  0
   -8.6440   -5.6130  -26.3340 H   0  0  0  0  0  0  0  0  0  0  0  0
   -8.6050   -4.6640  -27.9200 H   0  0  0  0  0  0  0  0  0  0  0  0
  -10.3740   -3.0970  -26.9560 H   0  0  0  0  0  0  0  0  0  0  0  0
   -9.7810   -2.6460  -22.7280 C   0  0  0  0  0  0  0  0  0  0  0  0
  -10.1380   -1.6490  -22.4690 H   0  0  0  0  0  0  0  0  0  0  0  0
  -10.3460   -3.4140  -22.1960 H   0  0  0  0  0  0  0  0  0  0  0  0
   -7.7790   -1.9950  -24.6890 H   0  0  0  0  0  0  0  0  0  0  0  0
   -7.7570   -3.7770  -24.5070 H   0  0  0  0  0  0  0  0  0  0  0  0
   -7.9320   -5.5550  -23.0330 H   0  0  0  0  0  0  0  0  0  0  0  0
   -9.0890   -5.1950  -21.7370 H   0  0  0  0  0  0  0  0  0  0  0  0
   -7.4560   -5.7540  -21.3040 H   0  0  0  0  0  0  0  0  0  0  0  0
  1  2  1  0  0  0  0
  1 43  1  0  0  0  0
  1 44  1  0  0  0  0
  1 45  1  0  0  0  0
  2  3  1  0  0  0  0
  2 24  1  0  0  0  0
  3  4  2  0  0  0  0
  3  5  1  0  0  0  0
  5  6  1  0  0  0  0
  5 22  1  0  0  0  0
  6  7  2  0  0  0  0
  6 15  1  0  0  0  0
  7  8  1  0  0  0  0
  7 21  1  0  0  0  0
  8  9  2  0  0  0  0
  9 10  1  0  0  0  0
  9 20  1  0  0  0  0
 10 11  2  0  0  0  0
 10 15  1  0  0  0  0
 11 12  1  0  0  0  0
 11 19  1  0  0  0  0
 12 13  2  0  0  0  0
 12 18  1  0  0  0  0
 13 14  1  0  0  0  0
 13 17  1  0  0  0  0
 14 15  2  0  0  0  0
 14 16  1  0  0  0  0
 22 23  2  0  0  0  0
 22 24  1  0  0  0  0
 24 25  1  0  0  0  0
 24 38  1  0  0  0  0
 25 26  1  0  0  0  0
 25 41  1  0  0  0  0
 25 42  1  0  0  0  0
 26 27  1  0  0  0  0
 26 38  1  0  0  0  0
 27 28  2  0  0  0  0
 27 29  2  0  0  0  0
 27 30  1  0  0  0  0
 30 31  1  0  0  0  0
 30 32  1  0  0  0  0
 30 37  1  0  0  0  0
 31 32  1  0  0  0  0
 31 35  1  0  0  0  0
 31 36  1  0  0  0  0
 32 33  1  0  0  0  0
 32 34  1  0  0  0  0
 38 39  1  0  0  0  0
 38 40  1  0  0  0  0
M  END
>  <MODEL>
       4

$$$$
best_conformers_79.pdb
 OpenBabel01292518153D

 45 49  0  0  0  0  0  0  0  0999 V2000
   -6.3500   -4.8390  -23.3640 C   0  0  0  0  0  0  0  0  0  0  0  0
   -6.7220   -3.6520  -22.6180 N   0  0  0  0  0  0  0  0  0  0  0  0
   -6.1330   -3.3110  -21.4260 C   0  0  0  0  0  0  0  0  0  0  0  0
   -5.2830   -3.9190  -20.8210 O   0  0  0  0  0  0  0  0  0  0  0  0
   -6.7100   -2.0850  -21.0290 N   0  0  0  0  0  0  0  0  0  0  0  0
   -6.1320   -1.2300  -20.0330 C   0  0  0  0  0  0  0  0  0  0  0  0
   -6.5280   -1.3150  -18.7250 C   0  0  0  0  0  0  0  0  0  0  0  0
   -6.0360   -0.5390  -17.7220 N   0  0  0  0  0  0  0  0  0  0  0  0
   -5.1160    0.3440  -18.0280 C   0  0  0  0  0  0  0  0  0  0  0  0
   -4.6100    0.5410  -19.3440 C   0  0  0  0  0  0  0  0  0  0  0  0
   -3.6120    1.5110  -19.6370 C   0  0  0  0  0  0  0  0  0  0  0  0
   -3.1560    1.6630  -20.9180 C   0  0  0  0  0  0  0  0  0  0  0  0
   -3.6730    0.8580  -21.9560 C   0  0  0  0  0  0  0  0  0  0  0  0
   -4.6330   -0.0840  -21.6960 C   0  0  0  0  0  0  0  0  0  0  0  0
   -5.1310   -0.2640  -20.3780 C   0  0  0  0  0  0  0  0  0  0  0  0
   -5.0230   -0.7020  -22.4950 H   0  0  0  0  0  0  0  0  0  0  0  0
   -3.3150    0.9870  -22.9720 H   0  0  0  0  0  0  0  0  0  0  0  0
   -2.3990    2.4080  -21.1480 H   0  0  0  0  0  0  0  0  0  0  0  0
   -3.2300    2.1260  -18.8290 H   0  0  0  0  0  0  0  0  0  0  0  0
   -4.7200    0.9560  -17.2170 H   0  0  0  0  0  0  0  0  0  0  0  0
   -7.2850   -2.0340  -18.4220 H   0  0  0  0  0  0  0  0  0  0  0  0
   -7.6350   -1.6370  -21.9760 C   0  0  0  0  0  0  0  0  0  0  0  0
   -8.2610   -0.6100  -21.9090 O   0  0  0  0  0  0  0  0  0  0  0  0
   -7.6600   -2.6740  -23.0920 C   0  0  0  0  0  0  0  0  0  0  0  0
   -7.4830   -2.0970  -24.5210 C   0  0  0  0  0  0  0  0  0  0  0  0
   -8.8640   -2.5560  -24.8830 N   0  0  0  0  0  0  0  0  0  0  0  0
   -8.9020   -3.6150  -26.1960 S   0  0  0  0  0  0  0  0  0  0  0  0
   -8.0480   -4.7530  -25.8940 O   0  0  0  0  0  0  0  0  0  0  0  0
   -8.6750   -2.8120  -27.3740 O   0  0  0  0  0  0  0  0  0  0  0  0
  -10.5640   -4.2170  -26.2390 C   0  0  0  0  0  0  0  0  0  0  0  0
  -10.8900   -5.5510  -25.6340 C   0  0  0  0  0  0  0  0  0  0  0  0
  -10.7710   -5.4300  -27.1190 C   0  0  0  0  0  0  0  0  0  0  0  0
  -11.6560   -5.5370  -27.7410 H   0  0  0  0  0  0  0  0  0  0  0  0
   -9.8870   -5.8530  -27.5960 H   0  0  0  0  0  0  0  0  0  0  0  0
  -11.8990   -5.6360  -25.2400 H   0  0  0  0  0  0  0  0  0  0  0  0
  -10.1160   -6.0790  -25.0710 H   0  0  0  0  0  0  0  0  0  0  0  0
  -11.2610   -3.3960  -26.1130 H   0  0  0  0  0  0  0  0  0  0  0  0
   -9.0630   -3.1510  -23.5410 C   0  0  0  0  0  0  0  0  0  0  0  0
   -9.8810   -2.6490  -23.0250 H   0  0  0  0  0  0  0  0  0  0  0  0
   -9.2250   -4.2350  -23.5310 H   0  0  0  0  0  0  0  0  0  0  0  0
   -6.6750   -2.5370  -25.1180 H   0  0  0  0  0  0  0  0  0  0  0  0
   -7.4220   -1.0080  -24.5590 H   0  0  0  0  0  0  0  0  0  0  0  0
   -5.8690   -4.5690  -24.3110 H   0  0  0  0  0  0  0  0  0  0  0  0
   -5.6490   -5.3930  -22.7380 H   0  0  0  0  0  0  0  0  0  0  0  0
   -7.2380   -5.4420  -23.5830 H   0  0  0  0  0  0  0  0  0  0  0  0
  1  2  1  0  0  0  0
  1 43  1  0  0  0  0
  1 44  1  0  0  0  0
  1 45  1  0  0  0  0
  2  3  1  0  0  0  0
  2 24  1  0  0  0  0
  3  4  2  0  0  0  0
  3  5  1  0  0  0  0
  5  6  1  0  0  0  0
  5 22  1  0  0  0  0
  6  7  2  0  0  0  0
  6 15  1  0  0  0  0
  7  8  1  0  0  0  0
  7 21  1  0  0  0  0
  8  9  2  0  0  0  0
  9 10  1  0  0  0  0
  9 20  1  0  0  0  0
 10 11  2  0  0  0  0
 10 15  1  0  0  0  0
 11 12  1  0  0  0  0
 11 19  1  0  0  0  0
 12 13  2  0  0  0  0
 12 18  1  0  0  0  0
 13 14  1  0  0  0  0
 13 17  1  0  0  0  0
 14 15  2  0  0  0  0
 14 16  1  0  0  0  0
 22 23  2  0  0  0  0
 22 24  1  0  0  0  0
 24 25  1  0  0  0  0
 24 38  1  0  0  0  0
 25 26  1  0  0  0  0
 25 41  1  0  0  0  0
 25 42  1  0  0  0  0
 26 27  1  0  0  0  0
 26 38  1  0  0  0  0
 27 28  2  0  0  0  0
 27 29  2  0  0  0  0
 27 30  1  0  0  0  0
 30 31  1  0  0  0  0
 30 32  1  0  0  0  0
 30 37  1  0  0  0  0
 31 32  1  0  0  0  0
 31 35  1  0  0  0  0
 31 36  1  0  0  0  0
 32 33  1  0  0  0  0
 32 34  1  0  0  0  0
 38 39  1  0  0  0  0
 38 40  1  0  0  0  0
M  END
>  <MODEL>
       5

$$$$
best_conformers_79.pdb
 OpenBabel01292518153D

 45 49  0  0  0  0  0  0  0  0999 V2000
   -6.3110   -4.7260  -23.4830 C   0  0  0  0  0  0  0  0  0  0  0  0
   -6.7090   -3.5860  -22.6820 N   0  0  0  0  0  0  0  0  0  0  0  0
   -6.1000   -3.2620  -21.4940 C   0  0  0  0  0  0  0  0  0  0  0  0
   -5.2050   -3.8560  -20.9340 O   0  0  0  0  0  0  0  0  0  0  0  0
   -6.7140   -2.0790  -21.0320 N   0  0  0  0  0  0  0  0  0  0  0  0
   -6.1350   -1.2280  -20.0320 C   0  0  0  0  0  0  0  0  0  0  0  0
   -6.5280   -1.3110  -18.7240 C   0  0  0  0  0  0  0  0  0  0  0  0
   -6.0310   -0.5350  -17.7220 N   0  0  0  0  0  0  0  0  0  0  0  0
   -5.1110    0.3480  -18.0250 C   0  0  0  0  0  0  0  0  0  0  0  0
   -4.6080    0.5440  -19.3400 C   0  0  0  0  0  0  0  0  0  0  0  0
   -3.6120    1.5130  -19.6380 C   0  0  0  0  0  0  0  0  0  0  0  0
   -3.1610    1.6690  -20.9180 C   0  0  0  0  0  0  0  0  0  0  0  0
   -3.6840    0.8650  -21.9570 C   0  0  0  0  0  0  0  0  0  0  0  0
   -4.6430   -0.0750  -21.6930 C   0  0  0  0  0  0  0  0  0  0  0  0
   -5.1340   -0.2610  -20.3750 C   0  0  0  0  0  0  0  0  0  0  0  0
   -5.0410   -0.6880  -22.4940 H   0  0  0  0  0  0  0  0  0  0  0  0
   -3.3320    0.9950  -22.9740 H   0  0  0  0  0  0  0  0  0  0  0  0
   -2.4050    2.4140  -21.1540 H   0  0  0  0  0  0  0  0  0  0  0  0
   -3.2250    2.1290  -18.8310 H   0  0  0  0  0  0  0  0  0  0  0  0
   -4.7130    0.9620  -17.2130 H   0  0  0  0  0  0  0  0  0  0  0  0
   -7.2850   -2.0260  -18.4120 H   0  0  0  0  0  0  0  0  0  0  0  0
   -7.6820   -1.6330  -21.9380 C   0  0  0  0  0  0  0  0  0  0  0  0
   -8.3430   -0.6340  -21.8160 O   0  0  0  0  0  0  0  0  0  0  0  0
   -7.7010   -2.6290  -23.0920 C   0  0  0  0  0  0  0  0  0  0  0  0
   -9.0980   -3.1440  -23.5190 C   0  0  0  0  0  0  0  0  0  0  0  0
   -8.9660   -2.4870  -24.8410 N   0  0  0  0  0  0  0  0  0  0  0  0
   -9.0110   -3.4970  -26.1920 S   0  0  0  0  0  0  0  0  0  0  0  0
   -8.1090   -4.6180  -25.9480 O   0  0  0  0  0  0  0  0  0  0  0  0
   -8.8560   -2.6430  -27.3490 O   0  0  0  0  0  0  0  0  0  0  0  0
  -10.6450   -4.1780  -26.2040 C   0  0  0  0  0  0  0  0  0  0  0  0
  -10.8200   -5.3720  -27.1250 C   0  0  0  0  0  0  0  0  0  0  0  0
  -10.8860   -5.5490  -25.6350 C   0  0  0  0  0  0  0  0  0  0  0  0
  -11.8840   -5.6880  -25.2240 H   0  0  0  0  0  0  0  0  0  0  0  0
  -10.0710   -6.0490  -25.1100 H   0  0  0  0  0  0  0  0  0  0  0  0
   -9.9320   -5.7420  -27.6350 H   0  0  0  0  0  0  0  0  0  0  0  0
  -11.7180   -5.5220  -27.7190 H   0  0  0  0  0  0  0  0  0  0  0  0
  -11.3840   -3.4050  -26.0150 H   0  0  0  0  0  0  0  0  0  0  0  0
   -7.5930   -1.9920  -24.5030 C   0  0  0  0  0  0  0  0  0  0  0  0
   -6.7910   -2.3830  -25.1380 H   0  0  0  0  0  0  0  0  0  0  0  0
   -7.5670   -0.9030  -24.4950 H   0  0  0  0  0  0  0  0  0  0  0  0
   -9.2090   -4.2350  -23.5480 H   0  0  0  0  0  0  0  0  0  0  0  0
   -9.9150   -2.7030  -22.9490 H   0  0  0  0  0  0  0  0  0  0  0  0
   -5.5680   -5.2800  -22.9070 H   0  0  0  0  0  0  0  0  0  0  0  0
   -5.8700   -4.4080  -24.4340 H   0  0  0  0  0  0  0  0  0  0  0  0
   -7.1750   -5.3620  -23.7050 H   0  0  0  0  0  0  0  0  0  0  0  0
  1  2  1  0  0  0  0
  1 43  1  0  0  0  0
  1 44  1  0  0  0  0
  1 45  1  0  0  0  0
  2  3  1  0  0  0  0
  2 24  1  0  0  0  0
  3  4  2  0  0  0  0
  3  5  1  0  0  0  0
  5  6  1  0  0  0  0
  5 22  1  0  0  0  0
  6  7  2  0  0  0  0
  6 15  1  0  0  0  0
  7  8  1  0  0  0  0
  7 21  1  0  0  0  0
  8  9  2  0  0  0  0
  9 10  1  0  0  0  0
  9 20  1  0  0  0  0
 10 11  2  0  0  0  0
 10 15  1  0  0  0  0
 11 12  1  0  0  0  0
 11 19  1  0  0  0  0
 12 13  2  0  0  0  0
 12 18  1  0  0  0  0
 13 14  1  0  0  0  0
 13 17  1  0  0  0  0
 14 15  2  0  0  0  0
 14 16  1  0  0  0  0
 22 23  2  0  0  0  0
 22 24  1  0  0  0  0
 24 25  1  0  0  0  0
 24 38  1  0  0  0  0
 25 26  1  0  0  0  0
 25 41  1  0  0  0  0
 25 42  1  0  0  0  0
 26 27  1  0  0  0  0
 26 38  1  0  0  0  0
 27 28  2  0  0  0  0
 27 29  2  0  0  0  0
 27 30  1  0  0  0  0
 30 31  1  0  0  0  0
 30 32  1  0  0  0  0
 30 37  1  0  0  0  0
 31 32  1  0  0  0  0
 31 35  1  0  0  0  0
 31 36  1  0  0  0  0
 32 33  1  0  0  0  0
 32 34  1  0  0  0  0
 38 39  1  0  0  0  0
 38 40  1  0  0  0  0
M  END
>  <MODEL>
       6

$$$$
best_conformers_79.pdb
 OpenBabel01292518153D

 45 49  0  0  0  0  0  0  0  0999 V2000
   -6.3850   -4.8930  -23.3060 C   0  0  0  0  0  0  0  0  0  0  0  0
   -6.7390   -3.6830  -22.5870 N   0  0  0  0  0  0  0  0  0  0  0  0
   -6.1580   -3.3340  -21.3920 C   0  0  0  0  0  0  0  0  0  0  0  0
   -5.3320   -3.9510  -20.7630 O   0  0  0  0  0  0  0  0  0  0  0  0
   -6.7120   -2.0870  -21.0270 N   0  0  0  0  0  0  0  0  0  0  0  0
   -6.1330   -1.2310  -20.0330 C   0  0  0  0  0  0  0  0  0  0  0  0
   -6.5270   -1.3150  -18.7250 C   0  0  0  0  0  0  0  0  0  0  0  0
   -6.0350   -0.5380  -17.7220 N   0  0  0  0  0  0  0  0  0  0  0  0
   -5.1150    0.3450  -18.0270 C   0  0  0  0  0  0  0  0  0  0  0  0
   -4.6110    0.5410  -19.3440 C   0  0  0  0  0  0  0  0  0  0  0  0
   -3.6120    1.5100  -19.6370 C   0  0  0  0  0  0  0  0  0  0  0  0
   -3.1540    1.6620  -20.9180 C   0  0  0  0  0  0  0  0  0  0  0  0
   -3.6700    0.8550  -21.9550 C   0  0  0  0  0  0  0  0  0  0  0  0
   -4.6310   -0.0860  -21.6940 C   0  0  0  0  0  0  0  0  0  0  0  0
   -5.1320   -0.2640  -20.3770 C   0  0  0  0  0  0  0  0  0  0  0  0
   -5.0190   -0.7060  -22.4930 H   0  0  0  0  0  0  0  0  0  0  0  0
   -3.3100    0.9820  -22.9710 H   0  0  0  0  0  0  0  0  0  0  0  0
   -2.3970    2.4060  -21.1480 H   0  0  0  0  0  0  0  0  0  0  0  0
   -3.2290    2.1260  -18.8290 H   0  0  0  0  0  0  0  0  0  0  0  0
   -4.7190    0.9580  -17.2160 H   0  0  0  0  0  0  0  0  0  0  0  0
   -7.2840   -2.0330  -18.4200 H   0  0  0  0  0  0  0  0  0  0  0  0
   -7.6130   -1.6350  -21.9940 C   0  0  0  0  0  0  0  0  0  0  0  0
   -8.2150   -0.5940  -21.9560 O   0  0  0  0  0  0  0  0  0  0  0  0
   -7.6470   -2.6920  -23.0920 C   0  0  0  0  0  0  0  0  0  0  0  0
   -9.0550   -3.1440  -23.5540 C   0  0  0  0  0  0  0  0  0  0  0  0
   -8.8220   -2.5800  -24.9040 N   0  0  0  0  0  0  0  0  0  0  0  0
   -8.8620   -3.6620  -26.1980 S   0  0  0  0  0  0  0  0  0  0  0  0
   -8.5950   -2.8890  -27.3880 O   0  0  0  0  0  0  0  0  0  0  0  0
   -8.0400   -4.8150  -25.8580 O   0  0  0  0  0  0  0  0  0  0  0  0
  -10.5380   -4.2230  -26.2570 C   0  0  0  0  0  0  0  0  0  0  0  0
  -10.9100   -5.5350  -25.6300 C   0  0  0  0  0  0  0  0  0  0  0  0
  -10.7650   -5.4460  -27.1160 C   0  0  0  0  0  0  0  0  0  0  0  0
  -11.6430   -5.5430  -27.7510 H   0  0  0  0  0  0  0  0  0  0  0  0
   -9.8870   -5.9070  -27.5700 H   0  0  0  0  0  0  0  0  0  0  0  0
  -11.9260   -5.5890  -25.2510 H   0  0  0  0  0  0  0  0  0  0  0  0
  -10.1580   -6.0730  -25.0470 H   0  0  0  0  0  0  0  0  0  0  0  0
  -11.2090   -3.3810  -26.1560 H   0  0  0  0  0  0  0  0  0  0  0  0
   -7.4370   -2.1460  -24.5290 C   0  0  0  0  0  0  0  0  0  0  0  0
   -7.3480   -1.0600  -24.5850 H   0  0  0  0  0  0  0  0  0  0  0  0
   -6.6320   -2.6170  -25.1050 H   0  0  0  0  0  0  0  0  0  0  0  0
   -9.2410   -4.2240  -23.5270 H   0  0  0  0  0  0  0  0  0  0  0  0
   -9.8660   -2.6140  -23.0570 H   0  0  0  0  0  0  0  0  0  0  0  0
   -7.2830   -5.4790  -23.5280 H   0  0  0  0  0  0  0  0  0  0  0  0
   -5.8850   -4.6540  -24.2510 H   0  0  0  0  0  0  0  0  0  0  0  0
   -5.7070   -5.4540  -22.6620 H   0  0  0  0  0  0  0  0  0  0  0  0
  1  2  1  0  0  0  0
  1 43  1  0  0  0  0
  1 44  1  0  0  0  0
  1 45  1  0  0  0  0
  2  3  1  0  0  0  0
  2 24  1  0  0  0  0
  3  4  2  0  0  0  0
  3  5  1  0  0  0  0
  5  6  1  0  0  0  0
  5 22  1  0  0  0  0
  6  7  2  0  0  0  0
  6 15  1  0  0  0  0
  7  8  1  0  0  0  0
  7 21  1  0  0  0  0
  8  9  2  0  0  0  0
  9 10  1  0  0  0  0
  9 20  1  0  0  0  0
 10 11  2  0  0  0  0
 10 15  1  0  0  0  0
 11 12  1  0  0  0  0
 11 19  1  0  0  0  0
 12 13  2  0  0  0  0
 12 18  1  0  0  0  0
 13 14  1  0  0  0  0
 13 17  1  0  0  0  0
 14 15  2  0  0  0  0
 14 16  1  0  0  0  0
 22 23  2  0  0  0  0
 22 24  1  0  0  0  0
 24 25  1  0  0  0  0
 24 38  1  0  0  0  0
 25 26  1  0  0  0  0
 25 41  1  0  0  0  0
 25 42  1  0  0  0  0
 26 27  1  0  0  0  0
 26 38  1  0  0  0  0
 27 28  2  0  0  0  0
 27 29  2  0  0  0  0
 27 30  1  0  0  0  0
 30 31  1  0  0  0  0
 30 32  1  0  0  0  0
 30 37  1  0  0  0  0
 31 32  1  0  0  0  0
 31 35  1  0  0  0  0
 31 36  1  0  0  0  0
 32 33  1  0  0  0  0
 32 34  1  0  0  0  0
 38 39  1  0  0  0  0
 38 40  1  0  0  0  0
M  END
>  <MODEL>
       7

$$$$
best_conformers_79.pdb
 OpenBabel01292518153D

 45 49  0  0  0  0  0  0  0  0999 V2000
   -8.0710   -5.1740  -22.0180 C   0  0  0  0  0  0  0  0  0  0  0  0
   -7.6320   -3.8050  -21.9040 N   0  0  0  0  0  0  0  0  0  0  0  0
   -6.7280   -3.3790  -20.9740 C   0  0  0  0  0  0  0  0  0  0  0  0
   -6.0180   -4.0610  -20.2680 O   0  0  0  0  0  0  0  0  0  0  0  0
   -6.7790   -1.9770  -21.0010 N   0  0  0  0  0  0  0  0  0  0  0  0
   -6.1660   -1.1760  -20.0080 C   0  0  0  0  0  0  0  0  0  0  0  0
   -6.5340   -1.3000  -18.6920 C   0  0  0  0  0  0  0  0  0  0  0  0
   -6.0350   -0.5360  -17.6860 N   0  0  0  0  0  0  0  0  0  0  0  0
   -5.1180    0.3470  -18.0090 C   0  0  0  0  0  0  0  0  0  0  0  0
   -4.6220    0.5320  -19.3310 C   0  0  0  0  0  0  0  0  0  0  0  0
   -3.6220    1.4910  -19.6260 C   0  0  0  0  0  0  0  0  0  0  0  0
   -3.1520    1.6340  -20.9010 C   0  0  0  0  0  0  0  0  0  0  0  0
   -3.6470    0.8250  -21.9490 C   0  0  0  0  0  0  0  0  0  0  0  0
   -4.6190   -0.1100  -21.6950 C   0  0  0  0  0  0  0  0  0  0  0  0
   -5.1430   -0.2580  -20.3760 C   0  0  0  0  0  0  0  0  0  0  0  0
   -4.9970   -0.7310  -22.5050 H   0  0  0  0  0  0  0  0  0  0  0  0
   -3.2670    0.9560  -22.9590 H   0  0  0  0  0  0  0  0  0  0  0  0
   -2.4010    2.3860  -21.1260 H   0  0  0  0  0  0  0  0  0  0  0  0
   -3.2590    2.1120  -18.8140 H   0  0  0  0  0  0  0  0  0  0  0  0
   -4.7090    0.9760  -17.2140 H   0  0  0  0  0  0  0  0  0  0  0  0
   -7.2780   -2.0390  -18.3970 H   0  0  0  0  0  0  0  0  0  0  0  0
   -7.6370   -1.5060  -21.9980 C   0  0  0  0  0  0  0  0  0  0  0  0
   -7.8630   -0.3550  -22.2750 O   0  0  0  0  0  0  0  0  0  0  0  0
   -8.2590   -2.7350  -22.6270 C   0  0  0  0  0  0  0  0  0  0  0  0
   -9.7990   -2.6490  -22.7380 C   0  0  0  0  0  0  0  0  0  0  0  0
   -9.7100   -2.7940  -24.2220 N   0  0  0  0  0  0  0  0  0  0  0  0
  -10.5220   -4.1530  -24.8110 S   0  0  0  0  0  0  0  0  0  0  0  0
  -11.9240   -3.9590  -24.5140 O   0  0  0  0  0  0  0  0  0  0  0  0
   -9.8470   -5.3590  -24.3450 O   0  0  0  0  0  0  0  0  0  0  0  0
  -10.2180   -4.0620  -26.5550 C   0  0  0  0  0  0  0  0  0  0  0  0
   -9.1580   -5.0030  -27.0720 C   0  0  0  0  0  0  0  0  0  0  0  0
  -10.6020   -5.3110  -27.3000 C   0  0  0  0  0  0  0  0  0  0  0  0
  -10.9780   -5.2030  -28.3120 H   0  0  0  0  0  0  0  0  0  0  0  0
  -11.0550   -6.1040  -26.7120 H   0  0  0  0  0  0  0  0  0  0  0  0
   -8.6350   -5.5950  -26.3260 H   0  0  0  0  0  0  0  0  0  0  0  0
   -8.5720   -4.6740  -27.9240 H   0  0  0  0  0  0  0  0  0  0  0  0
  -10.3540   -3.0920  -27.0200 H   0  0  0  0  0  0  0  0  0  0  0  0
   -8.2240   -2.8540  -24.1650 C   0  0  0  0  0  0  0  0  0  0  0  0
   -7.7890   -3.8020  -24.4950 H   0  0  0  0  0  0  0  0  0  0  0  0
   -7.7460   -2.0150  -24.6760 H   0  0  0  0  0  0  0  0  0  0  0  0
  -10.1490   -1.6540  -22.4700 H   0  0  0  0  0  0  0  0  0  0  0  0
  -10.3910   -3.4130  -22.2240 H   0  0  0  0  0  0  0  0  0  0  0  0
   -7.5230   -5.7650  -21.2860 H   0  0  0  0  0  0  0  0  0  0  0  0
   -7.9470   -5.5610  -23.0320 H   0  0  0  0  0  0  0  0  0  0  0  0
   -9.1240   -5.1940  -21.7680 H   0  0  0  0  0  0  0  0  0  0  0  0
  1  2  1  0  0  0  0
  1 43  1  0  0  0  0
  1 44  1  0  0  0  0
  1 45  1  0  0  0  0
  2  3  1  0  0  0  0
  2 24  1  0  0  0  0
  3  4  2  0  0  0  0
  3  5  1  0  0  0  0
  5  6  1  0  0  0  0
  5 22  1  0  0  0  0
  6  7  2  0  0  0  0
  6 15  1  0  0  0  0
  7  8  1  0  0  0  0
  7 21  1  0  0  0  0
  8  9  2  0  0  0  0
  9 10  1  0  0  0  0
  9 20  1  0  0  0  0
 10 11  2  0  0  0  0
 10 15  1  0  0  0  0
 11 12  1  0  0  0  0
 11 19  1  0  0  0  0
 12 13  2  0  0  0  0
 12 18  1  0  0  0  0
 13 14  1  0  0  0  0
 13 17  1  0  0  0  0
 14 15  2  0  0  0  0
 14 16  1  0  0  0  0
 22 23  2  0  0  0  0
 22 24  1  0  0  0  0
 24 25  1  0  0  0  0
 24 38  1  0  0  0  0
 25 26  1  0  0  0  0
 25 41  1  0  0  0  0
 25 42  1  0  0  0  0
 26 27  1  0  0  0  0
 26 38  1  0  0  0  0
 27 28  2  0  0  0  0
 27 29  2  0  0  0  0
 27 30  1  0  0  0  0
 30 31  1  0  0  0  0
 30 32  1  0  0  0  0
 30 37  1  0  0  0  0
 31 32  1  0  0  0  0
 31 35  1  0  0  0  0
 31 36  1  0  0  0  0
 32 33  1  0  0  0  0
 32 34  1  0  0  0  0
 38 39  1  0  0  0  0
 38 40  1  0  0  0  0
M  END
>  <MODEL>
       8

$$$$
best_conformers_79.pdb
 OpenBabel01292518153D

 45 49  0  0  0  0  0  0  0  0999 V2000
   -9.5360   -3.8870  -22.3970 C   0  0  0  0  0  0  0  0  0  0  0  0
   -8.2550   -3.4180  -21.9400 N   0  0  0  0  0  0  0  0  0  0  0  0
   -8.0990   -2.3430  -21.1200 C   0  0  0  0  0  0  0  0  0  0  0  0
   -8.9760   -1.6580  -20.6530 O   0  0  0  0  0  0  0  0  0  0  0  0
   -6.7150   -2.1690  -20.9320 N   0  0  0  0  0  0  0  0  0  0  0  0
   -6.1450   -1.2430  -20.0030 C   0  0  0  0  0  0  0  0  0  0  0  0
   -6.5370   -1.2990  -18.6900 C   0  0  0  0  0  0  0  0  0  0  0  0
   -6.0300   -0.5280  -17.6960 N   0  0  0  0  0  0  0  0  0  0  0  0
   -5.1090    0.3460  -18.0260 C   0  0  0  0  0  0  0  0  0  0  0  0
   -4.6230    0.5370  -19.3490 C   0  0  0  0  0  0  0  0  0  0  0  0
   -3.6270    1.5100  -19.6420 C   0  0  0  0  0  0  0  0  0  0  0  0
   -3.1890    1.6850  -20.9250 C   0  0  0  0  0  0  0  0  0  0  0  0
   -3.7330    0.9020  -21.9660 C   0  0  0  0  0  0  0  0  0  0  0  0
   -4.6950   -0.0430  -21.7090 C   0  0  0  0  0  0  0  0  0  0  0  0
   -5.1600   -0.2670  -20.3830 C   0  0  0  0  0  0  0  0  0  0  0  0
   -5.1030   -0.6360  -22.5210 H   0  0  0  0  0  0  0  0  0  0  0  0
   -3.3880    1.0520  -22.9840 H   0  0  0  0  0  0  0  0  0  0  0  0
   -2.4340    2.4340  -21.1520 H   0  0  0  0  0  0  0  0  0  0  0  0
   -3.2370    2.1140  -18.8280 H   0  0  0  0  0  0  0  0  0  0  0  0
   -4.7070    0.9610  -17.2220 H   0  0  0  0  0  0  0  0  0  0  0  0
   -7.2960   -2.0140  -18.3830 H   0  0  0  0  0  0  0  0  0  0  0  0
   -5.9990   -3.1530  -21.6170 C   0  0  0  0  0  0  0  0  0  0  0  0
   -4.8000   -3.2860  -21.5950 O   0  0  0  0  0  0  0  0  0  0  0  0
   -7.0200   -4.0280  -22.3370 C   0  0  0  0  0  0  0  0  0  0  0  0
   -6.8050   -5.5550  -22.1450 C   0  0  0  0  0  0  0  0  0  0  0  0
   -6.5920   -5.7280  -23.6240 N   0  0  0  0  0  0  0  0  0  0  0  0
   -7.6840   -6.8060  -24.3500 S   0  0  0  0  0  0  0  0  0  0  0  0
   -8.9450   -6.1150  -24.5780 O   0  0  0  0  0  0  0  0  0  0  0  0
   -7.6370   -7.9990  -23.5240 O   0  0  0  0  0  0  0  0  0  0  0  0
   -7.0290   -7.2120  -25.9600 C   0  0  0  0  0  0  0  0  0  0  0  0
   -5.5580   -7.3760  -26.1590 C   0  0  0  0  0  0  0  0  0  0  0  0
   -6.2670   -6.2000  -26.7700 C   0  0  0  0  0  0  0  0  0  0  0  0
   -6.4360   -6.1870  -27.8430 H   0  0  0  0  0  0  0  0  0  0  0  0
   -6.1200   -5.2100  -26.3390 H   0  0  0  0  0  0  0  0  0  0  0  0
   -4.9350   -7.1940  -25.2870 H   0  0  0  0  0  0  0  0  0  0  0  0
   -5.2190   -8.1810  -26.8080 H   0  0  0  0  0  0  0  0  0  0  0  0
   -7.7250   -7.8840  -26.4590 H   0  0  0  0  0  0  0  0  0  0  0  0
   -6.8060   -4.2740  -23.8500 C   0  0  0  0  0  0  0  0  0  0  0  0
   -5.8950   -3.8110  -24.2230 H   0  0  0  0  0  0  0  0  0  0  0  0
   -7.6640   -4.0350  -24.4890 H   0  0  0  0  0  0  0  0  0  0  0  0
   -5.8910   -5.7880  -21.5970 H   0  0  0  0  0  0  0  0  0  0  0  0
   -7.6410   -6.1310  -21.7320 H   0  0  0  0  0  0  0  0  0  0  0  0
  -10.2990   -3.4910  -21.7280 H   0  0  0  0  0  0  0  0  0  0  0  0
   -9.4870   -4.9720  -22.3740 H   0  0  0  0  0  0  0  0  0  0  0  0
   -9.7430   -3.5560  -23.4220 H   0  0  0  0  0  0  0  0  0  0  0  0
  1  2  1  0  0  0  0
  1 43  1  0  0  0  0
  1 44  1  0  0  0  0
  1 45  1  0  0  0  0
  2  3  1  0  0  0  0
  2 24  1  0  0  0  0
  3  4  2  0  0  0  0
  3  5  1  0  0  0  0
  5  6  1  0  0  0  0
  5 22  1  0  0  0  0
  6  7  2  0  0  0  0
  6 15  1  0  0  0  0
  7  8  1  0  0  0  0
  7 21  1  0  0  0  0
  8  9  2  0  0  0  0
  9 10  1  0  0  0  0
  9 20  1  0  0  0  0
 10 11  2  0  0  0  0
 10 15  1  0  0  0  0
 11 12  1  0  0  0  0
 11 19  1  0  0  0  0
 12 13  2  0  0  0  0
 12 18  1  0  0  0  0
 13 14  1  0  0  0  0
 13 17  1  0  0  0  0
 14 15  2  0  0  0  0
 14 16  1  0  0  0  0
 22 23  2  0  0  0  0
 22 24  1  0  0  0  0
 24 25  1  0  0  0  0
 24 38  1  0  0  0  0
 25 26  1  0  0  0  0
 25 41  1  0  0  0  0
 25 42  1  0  0  0  0
 26 27  1  0  0  0  0
 26 38  1  0  0  0  0
 27 28  2  0  0  0  0
 27 29  2  0  0  0  0
 27 30  1  0  0  0  0
 30 31  1  0  0  0  0
 30 32  1  0  0  0  0
 30 37  1  0  0  0  0
 31 32  1  0  0  0  0
 31 35  1  0  0  0  0
 31 36  1  0  0  0  0
 32 33  1  0  0  0  0
 32 34  1  0  0  0  0
 38 39  1  0  0  0  0
 38 40  1  0  0  0  0
M  END
>  <MODEL>
       9

$$$$
best_conformers_79.pdb
 OpenBabel01292518153D

 45 49  0  0  0  0  0  0  0  0999 V2000
   -9.5270   -3.9170  -22.3710 C   0  0  0  0  0  0  0  0  0  0  0  0
   -8.2480   -3.4310  -21.9250 N   0  0  0  0  0  0  0  0  0  0  0  0
   -8.0960   -2.3500  -21.1100 C   0  0  0  0  0  0  0  0  0  0  0  0
   -8.9800   -1.6660  -20.6470 O   0  0  0  0  0  0  0  0  0  0  0  0
   -6.7120   -2.1680  -20.9290 N   0  0  0  0  0  0  0  0  0  0  0  0
   -6.1430   -1.2410  -20.0020 C   0  0  0  0  0  0  0  0  0  0  0  0
   -6.5340   -1.2970  -18.6900 C   0  0  0  0  0  0  0  0  0  0  0  0
   -6.0260   -0.5250  -17.6980 N   0  0  0  0  0  0  0  0  0  0  0  0
   -5.1070    0.3500  -18.0240 C   0  0  0  0  0  0  0  0  0  0  0  0
   -4.6210    0.5400  -19.3460 C   0  0  0  0  0  0  0  0  0  0  0  0
   -3.6250    1.5110  -19.6420 C   0  0  0  0  0  0  0  0  0  0  0  0
   -3.1860    1.6850  -20.9240 C   0  0  0  0  0  0  0  0  0  0  0  0
   -3.7300    0.9000  -21.9640 C   0  0  0  0  0  0  0  0  0  0  0  0
   -4.6940   -0.0440  -21.7050 C   0  0  0  0  0  0  0  0  0  0  0  0
   -5.1590   -0.2650  -20.3800 C   0  0  0  0  0  0  0  0  0  0  0  0
   -5.1030   -0.6380  -22.5160 H   0  0  0  0  0  0  0  0  0  0  0  0
   -3.3870    1.0490  -22.9830 H   0  0  0  0  0  0  0  0  0  0  0  0
   -2.4310    2.4330  -21.1550 H   0  0  0  0  0  0  0  0  0  0  0  0
   -3.2320    2.1180  -18.8310 H   0  0  0  0  0  0  0  0  0  0  0  0
   -4.7050    0.9650  -17.2190 H   0  0  0  0  0  0  0  0  0  0  0  0
   -7.2910   -2.0120  -18.3790 H   0  0  0  0  0  0  0  0  0  0  0  0
   -5.9940   -3.1580  -21.6070 C   0  0  0  0  0  0  0  0  0  0  0  0
   -4.7970   -3.2820  -21.5890 O   0  0  0  0  0  0  0  0  0  0  0  0
   -7.0120   -4.0480  -22.3140 C   0  0  0  0  0  0  0  0  0  0  0  0
   -6.7970   -4.3170  -23.8240 C   0  0  0  0  0  0  0  0  0  0  0  0
   -6.5750   -5.7670  -23.5770 N   0  0  0  0  0  0  0  0  0  0  0  0
   -7.6650   -6.8580  -24.2850 S   0  0  0  0  0  0  0  0  0  0  0  0
   -8.9280   -6.1670  -24.5150 O   0  0  0  0  0  0  0  0  0  0  0  0
   -7.6100   -8.0440  -23.4530 O   0  0  0  0  0  0  0  0  0  0  0  0
   -7.0200   -7.2810  -25.8950 C   0  0  0  0  0  0  0  0  0  0  0  0
   -5.5510   -7.4880  -26.0800 C   0  0  0  0  0  0  0  0  0  0  0  0
   -6.2230   -6.2940  -26.7020 C   0  0  0  0  0  0  0  0  0  0  0  0
   -6.0500   -5.3070  -26.2730 H   0  0  0  0  0  0  0  0  0  0  0  0
   -6.3730   -6.2790  -27.7800 H   0  0  0  0  0  0  0  0  0  0  0  0
   -4.9310   -7.3170  -25.2030 H   0  0  0  0  0  0  0  0  0  0  0  0
   -5.2220   -8.3010  -26.7270 H   0  0  0  0  0  0  0  0  0  0  0  0
   -7.7220   -7.9370  -26.4050 H   0  0  0  0  0  0  0  0  0  0  0  0
   -6.7880   -5.5730  -22.1030 C   0  0  0  0  0  0  0  0  0  0  0  0
   -5.8780   -5.7920  -21.5440 H   0  0  0  0  0  0  0  0  0  0  0  0
   -7.6240   -6.1440  -21.6840 H   0  0  0  0  0  0  0  0  0  0  0  0
   -7.6580   -4.0910  -24.4620 H   0  0  0  0  0  0  0  0  0  0  0  0
   -5.8920   -3.8470  -24.1990 H   0  0  0  0  0  0  0  0  0  0  0  0
   -9.7370   -3.6160  -23.4040 H   0  0  0  0  0  0  0  0  0  0  0  0
  -10.3000   -3.5140  -21.7130 H   0  0  0  0  0  0  0  0  0  0  0  0
   -9.4590   -5.0000  -22.3240 H   0  0  0  0  0  0  0  0  0  0  0  0
  1  2  1  0  0  0  0
  1 43  1  0  0  0  0
  1 44  1  0  0  0  0
  1 45  1  0  0  0  0
  2  3  1  0  0  0  0
  2 24  1  0  0  0  0
  3  4  2  0  0  0  0
  3  5  1  0  0  0  0
  5  6  1  0  0  0  0
  5 22  1  0  0  0  0
  6  7  2  0  0  0  0
  6 15  1  0  0  0  0
  7  8  1  0  0  0  0
  7 21  1  0  0  0  0
  8  9  2  0  0  0  0
  9 10  1  0  0  0  0
  9 20  1  0  0  0  0
 10 11  2  0  0  0  0
 10 15  1  0  0  0  0
 11 12  1  0  0  0  0
 11 19  1  0  0  0  0
 12 13  2  0  0  0  0
 12 18  1  0  0  0  0
 13 14  1  0  0  0  0
 13 17  1  0  0  0  0
 14 15  2  0  0  0  0
 14 16  1  0  0  0  0
 22 23  2  0  0  0  0
 22 24  1  0  0  0  0
 24 25  1  0  0  0  0
 24 38  1  0  0  0  0
 25 26  1  0  0  0  0
 25 41  1  0  0  0  0
 25 42  1  0  0  0  0
 26 27  1  0  0  0  0
 26 38  1  0  0  0  0
 27 28  2  0  0  0  0
 27 29  2  0  0  0  0
 27 30  1  0  0  0  0
 30 31  1  0  0  0  0
 30 32  1  0  0  0  0
 30 37  1  0  0  0  0
 31 32  1  0  0  0  0
 31 35  1  0  0  0  0
 31 36  1  0  0  0  0
 32 33  1  0  0  0  0
 32 34  1  0  0  0  0
 38 39  1  0  0  0  0
 38 40  1  0  0  0  0
M  END
>  <MODEL>
      10

$$$$
best_conformers_79.pdb
 OpenBabel01292518153D

 45 49  0  0  0  0  0  0  0  0999 V2000
   -9.4620   -3.9130  -22.2460 C   0  0  0  0  0  0  0  0  0  0  0  0
   -8.1760   -3.3040  -22.0230 N   0  0  0  0  0  0  0  0  0  0  0  0
   -8.0170   -2.2680  -21.1530 C   0  0  0  0  0  0  0  0  0  0  0  0
   -8.8880   -1.5850  -20.6600 O   0  0  0  0  0  0  0  0  0  0  0  0
   -6.6450   -2.1460  -20.9350 N   0  0  0  0  0  0  0  0  0  0  0  0
   -6.1160   -1.2470  -19.9840 C   0  0  0  0  0  0  0  0  0  0  0  0
   -6.5460   -1.3040  -18.6820 C   0  0  0  0  0  0  0  0  0  0  0  0
   -6.0530   -0.5300  -17.6840 N   0  0  0  0  0  0  0  0  0  0  0  0
   -5.1250    0.3380  -18.0170 C   0  0  0  0  0  0  0  0  0  0  0  0
   -4.6340    0.5200  -19.3420 C   0  0  0  0  0  0  0  0  0  0  0  0
   -3.6460    1.4970  -19.6350 C   0  0  0  0  0  0  0  0  0  0  0  0
   -3.2030    1.6760  -20.9160 C   0  0  0  0  0  0  0  0  0  0  0  0
   -3.7330    0.8960  -21.9730 C   0  0  0  0  0  0  0  0  0  0  0  0
   -4.6900   -0.0580  -21.7180 C   0  0  0  0  0  0  0  0  0  0  0  0
   -5.1480   -0.2810  -20.3820 C   0  0  0  0  0  0  0  0  0  0  0  0
   -5.0930   -0.6420  -22.5420 H   0  0  0  0  0  0  0  0  0  0  0  0
   -3.3770    1.0570  -22.9900 H   0  0  0  0  0  0  0  0  0  0  0  0
   -2.4430    2.4240  -21.1360 H   0  0  0  0  0  0  0  0  0  0  0  0
   -3.2630    2.0970  -18.8120 H   0  0  0  0  0  0  0  0  0  0  0  0
   -4.7050    0.9620  -17.2230 H   0  0  0  0  0  0  0  0  0  0  0  0
   -7.3240   -2.0130  -18.4010 H   0  0  0  0  0  0  0  0  0  0  0  0
   -5.9320   -3.1600  -21.5750 C   0  0  0  0  0  0  0  0  0  0  0  0
   -4.7460   -3.3610  -21.4700 O   0  0  0  0  0  0  0  0  0  0  0  0
   -6.9510   -3.9920  -22.3190 C   0  0  0  0  0  0  0  0  0  0  0  0
   -6.7260   -4.3200  -23.8100 C   0  0  0  0  0  0  0  0  0  0  0  0
   -6.5870   -5.7520  -23.4760 N   0  0  0  0  0  0  0  0  0  0  0  0
   -7.6600   -6.8690  -24.1230 S   0  0  0  0  0  0  0  0  0  0  0  0
   -9.0240   -6.3570  -24.0440 O   0  0  0  0  0  0  0  0  0  0  0  0
   -7.3250   -8.1120  -23.4640 O   0  0  0  0  0  0  0  0  0  0  0  0
   -7.2630   -6.9280  -25.8490 C   0  0  0  0  0  0  0  0  0  0  0  0
   -8.3430   -7.5140  -26.7270 C   0  0  0  0  0  0  0  0  0  0  0  0
   -8.1030   -6.0470  -26.7380 C   0  0  0  0  0  0  0  0  0  0  0  0
   -8.8310   -5.4130  -26.2450 H   0  0  0  0  0  0  0  0  0  0  0  0
   -7.6060   -5.6190  -27.5950 H   0  0  0  0  0  0  0  0  0  0  0  0
   -9.2380   -7.9000  -26.2500 H   0  0  0  0  0  0  0  0  0  0  0  0
   -8.0200   -8.0660  -27.5980 H   0  0  0  0  0  0  0  0  0  0  0  0
   -6.2160   -7.1200  -26.0730 H   0  0  0  0  0  0  0  0  0  0  0  0
   -6.7990   -5.5060  -22.0260 C   0  0  0  0  0  0  0  0  0  0  0  0
   -7.6430   -6.0460  -21.5830 H   0  0  0  0  0  0  0  0  0  0  0  0
   -5.9010   -5.7180  -21.4500 H   0  0  0  0  0  0  0  0  0  0  0  0
   -7.5960   -4.1020  -24.4370 H   0  0  0  0  0  0  0  0  0  0  0  0
   -5.8220   -3.9010  -24.2560 H   0  0  0  0  0  0  0  0  0  0  0  0
  -10.2020   -3.2990  -21.7350 H   0  0  0  0  0  0  0  0  0  0  0  0
   -9.4210   -4.8880  -21.7810 H   0  0  0  0  0  0  0  0  0  0  0  0
   -9.6780   -4.0360  -23.3150 H   0  0  0  0  0  0  0  0  0  0  0  0
  1  2  1  0  0  0  0
  1 43  1  0  0  0  0
  1 44  1  0  0  0  0
  1 45  1  0  0  0  0
  2  3  1  0  0  0  0
  2 24  1  0  0  0  0
  3  4  2  0  0  0  0
  3  5  1  0  0  0  0
  5  6  1  0  0  0  0
  5 22  1  0  0  0  0
  6  7  2  0  0  0  0
  6 15  1  0  0  0  0
  7  8  1  0  0  0  0
  7 21  1  0  0  0  0
  8  9  2  0  0  0  0
  9 10  1  0  0  0  0
  9 20  1  0  0  0  0
 10 11  2  0  0  0  0
 10 15  1  0  0  0  0
 11 12  1  0  0  0  0
 11 19  1  0  0  0  0
 12 13  2  0  0  0  0
 12 18  1  0  0  0  0
 13 14  1  0  0  0  0
 13 17  1  0  0  0  0
 14 15  2  0  0  0  0
 14 16  1  0  0  0  0
 22 23  2  0  0  0  0
 22 24  1  0  0  0  0
 24 25  1  0  0  0  0
 24 38  1  0  0  0  0
 25 26  1  0  0  0  0
 25 41  1  0  0  0  0
 25 42  1  0  0  0  0
 26 27  1  0  0  0  0
 26 38  1  0  0  0  0
 27 28  2  0  0  0  0
 27 29  2  0  0  0  0
 27 30  1  0  0  0  0
 30 31  1  0  0  0  0
 30 32  1  0  0  0  0
 30 37  1  0  0  0  0
 31 32  1  0  0  0  0
 31 35  1  0  0  0  0
 31 36  1  0  0  0  0
 32 33  1  0  0  0  0
 32 34  1  0  0  0  0
 38 39  1  0  0  0  0
 38 40  1  0  0  0  0
M  END
>  <MODEL>
      11

$$$$
best_conformers_79.pdb
 OpenBabel01292518153D

 45 49  0  0  0  0  0  0  0  0999 V2000
   -9.4550   -3.9180  -22.2530 C   0  0  0  0  0  0  0  0  0  0  0  0
   -8.1710   -3.3080  -22.0220 N   0  0  0  0  0  0  0  0  0  0  0  0
   -8.0160   -2.2720  -21.1520 C   0  0  0  0  0  0  0  0  0  0  0  0
   -8.8890   -1.5920  -20.6580 O   0  0  0  0  0  0  0  0  0  0  0  0
   -6.6430   -2.1470  -20.9340 N   0  0  0  0  0  0  0  0  0  0  0  0
   -6.1150   -1.2470  -19.9840 C   0  0  0  0  0  0  0  0  0  0  0  0
   -6.5470   -1.3040  -18.6820 C   0  0  0  0  0  0  0  0  0  0  0  0
   -6.0530   -0.5300  -17.6840 N   0  0  0  0  0  0  0  0  0  0  0  0
   -5.1250    0.3380  -18.0170 C   0  0  0  0  0  0  0  0  0  0  0  0
   -4.6340    0.5200  -19.3420 C   0  0  0  0  0  0  0  0  0  0  0  0
   -3.6460    1.4970  -19.6350 C   0  0  0  0  0  0  0  0  0  0  0  0
   -3.2040    1.6760  -20.9160 C   0  0  0  0  0  0  0  0  0  0  0  0
   -3.7330    0.8960  -21.9730 C   0  0  0  0  0  0  0  0  0  0  0  0
   -4.6900   -0.0570  -21.7180 C   0  0  0  0  0  0  0  0  0  0  0  0
   -5.1480   -0.2810  -20.3820 C   0  0  0  0  0  0  0  0  0  0  0  0
   -5.0940   -0.6420  -22.5420 H   0  0  0  0  0  0  0  0  0  0  0  0
   -3.3770    1.0580  -22.9900 H   0  0  0  0  0  0  0  0  0  0  0  0
   -2.4430    2.4240  -21.1350 H   0  0  0  0  0  0  0  0  0  0  0  0
   -3.2630    2.0970  -18.8120 H   0  0  0  0  0  0  0  0  0  0  0  0
   -4.7060    0.9620  -17.2230 H   0  0  0  0  0  0  0  0  0  0  0  0
   -7.3240   -2.0130  -18.4010 H   0  0  0  0  0  0  0  0  0  0  0  0
   -5.9280   -3.1590  -21.5740 C   0  0  0  0  0  0  0  0  0  0  0  0
   -4.7420   -3.3590  -21.4670 O   0  0  0  0  0  0  0  0  0  0  0  0
   -6.9450   -3.9910  -22.3210 C   0  0  0  0  0  0  0  0  0  0  0  0
   -6.7190   -4.3140  -23.8130 C   0  0  0  0  0  0  0  0  0  0  0  0
   -6.5770   -5.7470  -23.4830 N   0  0  0  0  0  0  0  0  0  0  0  0
   -7.6480   -6.8650  -24.1320 S   0  0  0  0  0  0  0  0  0  0  0  0
   -7.3140   -8.1090  -23.4720 O   0  0  0  0  0  0  0  0  0  0  0  0
   -9.0140   -6.3550  -24.0570 O   0  0  0  0  0  0  0  0  0  0  0  0
   -7.2460   -6.9230  -25.8560 C   0  0  0  0  0  0  0  0  0  0  0  0
   -8.3240   -7.5070  -26.7370 C   0  0  0  0  0  0  0  0  0  0  0  0
   -8.0830   -6.0400  -26.7460 C   0  0  0  0  0  0  0  0  0  0  0  0
   -7.5820   -5.6110  -27.6010 H   0  0  0  0  0  0  0  0  0  0  0  0
   -8.8120   -5.4060  -26.2550 H   0  0  0  0  0  0  0  0  0  0  0  0
   -9.2220   -7.8930  -26.2640 H   0  0  0  0  0  0  0  0  0  0  0  0
   -7.9980   -8.0590  -27.6080 H   0  0  0  0  0  0  0  0  0  0  0  0
   -6.1990   -7.1150  -26.0760 H   0  0  0  0  0  0  0  0  0  0  0  0
   -6.7900   -5.5060  -22.0330 C   0  0  0  0  0  0  0  0  0  0  0  0
   -5.8910   -5.7170  -21.4560 H   0  0  0  0  0  0  0  0  0  0  0  0
   -7.6330   -6.0470  -21.5910 H   0  0  0  0  0  0  0  0  0  0  0  0
   -7.5880   -4.0950  -24.4400 H   0  0  0  0  0  0  0  0  0  0  0  0
   -5.8150   -3.8930  -24.2570 H   0  0  0  0  0  0  0  0  0  0  0  0
   -9.4110   -4.9000  -21.8030 H   0  0  0  0  0  0  0  0  0  0  0  0
   -9.6720   -4.0280  -23.3230 H   0  0  0  0  0  0  0  0  0  0  0  0
  -10.1980   -3.3140  -21.7340 H   0  0  0  0  0  0  0  0  0  0  0  0
  1  2  1  0  0  0  0
  1 43  1  0  0  0  0
  1 44  1  0  0  0  0
  1 45  1  0  0  0  0
  2  3  1  0  0  0  0
  2 24  1  0  0  0  0
  3  4  2  0  0  0  0
  3  5  1  0  0  0  0
  5  6  1  0  0  0  0
  5 22  1  0  0  0  0
  6  7  2  0  0  0  0
  6 15  1  0  0  0  0
  7  8  1  0  0  0  0
  7 21  1  0  0  0  0
  8  9  2  0  0  0  0
  9 10  1  0  0  0  0
  9 20  1  0  0  0  0
 10 11  2  0  0  0  0
 10 15  1  0  0  0  0
 11 12  1  0  0  0  0
 11 19  1  0  0  0  0
 12 13  2  0  0  0  0
 12 18  1  0  0  0  0
 13 14  1  0  0  0  0
 13 17  1  0  0  0  0
 14 15  2  0  0  0  0
 14 16  1  0  0  0  0
 22 23  2  0  0  0  0
 22 24  1  0  0  0  0
 24 25  1  0  0  0  0
 24 38  1  0  0  0  0
 25 26  1  0  0  0  0
 25 41  1  0  0  0  0
 25 42  1  0  0  0  0
 26 27  1  0  0  0  0
 26 38  1  0  0  0  0
 27 28  2  0  0  0  0
 27 29  2  0  0  0  0
 27 30  1  0  0  0  0
 30 31  1  0  0  0  0
 30 32  1  0  0  0  0
 30 37  1  0  0  0  0
 31 32  1  0  0  0  0
 31 35  1  0  0  0  0
 31 36  1  0  0  0  0
 32 33  1  0  0  0  0
 32 34  1  0  0  0  0
 38 39  1  0  0  0  0
 38 40  1  0  0  0  0
M  END
>  <MODEL>
      12

$$$$
best_conformers_79.pdb
 OpenBabel01292518153D

 45 49  0  0  0  0  0  0  0  0999 V2000
   -6.2040   -4.6750  -23.5070 C   0  0  0  0  0  0  0  0  0  0  0  0
   -6.6820   -3.5940  -22.6740 N   0  0  0  0  0  0  0  0  0  0  0  0
   -6.0830   -3.2610  -21.4860 C   0  0  0  0  0  0  0  0  0  0  0  0
   -5.1850   -3.8460  -20.9220 O   0  0  0  0  0  0  0  0  0  0  0  0
   -6.7100   -2.0830  -21.0290 N   0  0  0  0  0  0  0  0  0  0  0  0
   -6.1340   -1.2290  -20.0310 C   0  0  0  0  0  0  0  0  0  0  0  0
   -6.5280   -1.3120  -18.7220 C   0  0  0  0  0  0  0  0  0  0  0  0
   -6.0330   -0.5360  -17.7180 N   0  0  0  0  0  0  0  0  0  0  0  0
   -5.1130    0.3460  -18.0250 C   0  0  0  0  0  0  0  0  0  0  0  0
   -4.6080    0.5440  -19.3420 C   0  0  0  0  0  0  0  0  0  0  0  0
   -3.6110    1.5130  -19.6380 C   0  0  0  0  0  0  0  0  0  0  0  0
   -3.1600    1.6670  -20.9190 C   0  0  0  0  0  0  0  0  0  0  0  0
   -3.6810    0.8640  -21.9570 C   0  0  0  0  0  0  0  0  0  0  0  0
   -4.6400   -0.0770  -21.6950 C   0  0  0  0  0  0  0  0  0  0  0  0
   -5.1320   -0.2610  -20.3760 C   0  0  0  0  0  0  0  0  0  0  0  0
   -5.0360   -0.6920  -22.4960 H   0  0  0  0  0  0  0  0  0  0  0  0
   -3.3270    0.9940  -22.9740 H   0  0  0  0  0  0  0  0  0  0  0  0
   -2.4040    2.4120  -21.1510 H   0  0  0  0  0  0  0  0  0  0  0  0
   -3.2270    2.1280  -18.8300 H   0  0  0  0  0  0  0  0  0  0  0  0
   -4.7170    0.9590  -17.2150 H   0  0  0  0  0  0  0  0  0  0  0  0
   -7.2850   -2.0300  -18.4170 H   0  0  0  0  0  0  0  0  0  0  0  0
   -7.6660   -1.6390  -21.9470 C   0  0  0  0  0  0  0  0  0  0  0  0
   -8.3340   -0.6450  -21.8310 O   0  0  0  0  0  0  0  0  0  0  0  0
   -7.6600   -2.6350  -23.1030 C   0  0  0  0  0  0  0  0  0  0  0  0
   -9.0600   -3.1370  -23.5580 C   0  0  0  0  0  0  0  0  0  0  0  0
   -8.8900   -2.4200  -24.8420 N   0  0  0  0  0  0  0  0  0  0  0  0
   -9.1960   -3.1930  -26.2890 S   0  0  0  0  0  0  0  0  0  0  0  0
  -10.5640   -3.6610  -26.2080 O   0  0  0  0  0  0  0  0  0  0  0  0
   -8.7590   -2.2840  -27.3280 O   0  0  0  0  0  0  0  0  0  0  0  0
   -8.1990   -4.6700  -26.3990 C   0  0  0  0  0  0  0  0  0  0  0  0
   -8.8100   -5.9940  -26.0090 C   0  0  0  0  0  0  0  0  0  0  0  0
   -8.6210   -5.6600  -27.4590 C   0  0  0  0  0  0  0  0  0  0  0  0
   -9.5020   -5.4000  -28.0460 H   0  0  0  0  0  0  0  0  0  0  0  0
   -7.8410   -6.1740  -28.0180 H   0  0  0  0  0  0  0  0  0  0  0  0
   -8.1630   -6.7470  -25.5610 H   0  0  0  0  0  0  0  0  0  0  0  0
   -9.8250   -5.9620  -25.6160 H   0  0  0  0  0  0  0  0  0  0  0  0
   -7.1460   -4.4510  -26.2440 H   0  0  0  0  0  0  0  0  0  0  0  0
   -7.5190   -1.9830  -24.5110 C   0  0  0  0  0  0  0  0  0  0  0  0
   -7.4400   -0.8940  -24.4970 H   0  0  0  0  0  0  0  0  0  0  0  0
   -6.7370   -2.3930  -25.1620 H   0  0  0  0  0  0  0  0  0  0  0  0
   -9.8910   -2.7420  -22.9720 H   0  0  0  0  0  0  0  0  0  0  0  0
   -9.1660   -4.2250  -23.6610 H   0  0  0  0  0  0  0  0  0  0  0  0
   -7.0500   -5.2670  -23.8840 H   0  0  0  0  0  0  0  0  0  0  0  0
   -5.5620   -5.2990  -22.8840 H   0  0  0  0  0  0  0  0  0  0  0  0
   -5.6120   -4.2970  -24.3530 H   0  0  0  0  0  0  0  0  0  0  0  0
  1  2  1  0  0  0  0
  1 43  1  0  0  0  0
  1 44  1  0  0  0  0
  1 45  1  0  0  0  0
  2  3  1  0  0  0  0
  2 24  1  0  0  0  0
  3  4  2  0  0  0  0
  3  5  1  0  0  0  0
  5  6  1  0  0  0  0
  5 22  1  0  0  0  0
  6  7  2  0  0  0  0
  6 15  1  0  0  0  0
  7  8  1  0  0  0  0
  7 21  1  0  0  0  0
  8  9  2  0  0  0  0
  9 10  1  0  0  0  0
  9 20  1  0  0  0  0
 10 11  2  0  0  0  0
 10 15  1  0  0  0  0
 11 12  1  0  0  0  0
 11 19  1  0  0  0  0
 12 13  2  0  0  0  0
 12 18  1  0  0  0  0
 13 14  1  0  0  0  0
 13 17  1  0  0  0  0
 14 15  2  0  0  0  0
 14 16  1  0  0  0  0
 22 23  2  0  0  0  0
 22 24  1  0  0  0  0
 24 25  1  0  0  0  0
 24 38  1  0  0  0  0
 25 26  1  0  0  0  0
 25 41  1  0  0  0  0
 25 42  1  0  0  0  0
 26 27  1  0  0  0  0
 26 38  1  0  0  0  0
 27 28  2  0  0  0  0
 27 29  2  0  0  0  0
 27 30  1  0  0  0  0
 30 31  1  0  0  0  0
 30 32  1  0  0  0  0
 30 37  1  0  0  0  0
 31 32  1  0  0  0  0
 31 35  1  0  0  0  0
 31 36  1  0  0  0  0
 32 33  1  0  0  0  0
 32 34  1  0  0  0  0
 38 39  1  0  0  0  0
 38 40  1  0  0  0  0
M  END
>  <MODEL>
      13

$$$$
best_conformers_79.pdb
 OpenBabel01292518153D

 45 49  0  0  0  0  0  0  0  0999 V2000
   -8.8250   -2.4110  -23.9790 C   0  0  0  0  0  0  0  0  0  0  0  0
   -7.8600   -2.5320  -22.9050 N   0  0  0  0  0  0  0  0  0  0  0  0
   -7.8190   -1.6700  -21.8400 C   0  0  0  0  0  0  0  0  0  0  0  0
   -8.5610   -0.7420  -21.6160 O   0  0  0  0  0  0  0  0  0  0  0  0
   -6.7300   -2.0640  -21.0370 N   0  0  0  0  0  0  0  0  0  0  0  0
   -6.1470   -1.2180  -20.0370 C   0  0  0  0  0  0  0  0  0  0  0  0
   -6.5370   -1.3080  -18.7290 C   0  0  0  0  0  0  0  0  0  0  0  0
   -6.0370   -0.5400  -17.7200 N   0  0  0  0  0  0  0  0  0  0  0  0
   -5.1150    0.3400  -18.0290 C   0  0  0  0  0  0  0  0  0  0  0  0
   -4.6090    0.5410  -19.3440 C   0  0  0  0  0  0  0  0  0  0  0  0
   -3.6130    1.5120  -19.6390 C   0  0  0  0  0  0  0  0  0  0  0  0
   -3.1670    1.6740  -20.9200 C   0  0  0  0  0  0  0  0  0  0  0  0
   -3.6950    0.8790  -21.9620 C   0  0  0  0  0  0  0  0  0  0  0  0
   -4.6570   -0.0590  -21.7030 C   0  0  0  0  0  0  0  0  0  0  0  0
   -5.1380   -0.2570  -20.3820 C   0  0  0  0  0  0  0  0  0  0  0  0
   -5.0700   -0.6560  -22.5090 H   0  0  0  0  0  0  0  0  0  0  0  0
   -3.3450    1.0170  -22.9790 H   0  0  0  0  0  0  0  0  0  0  0  0
   -2.4120    2.4200  -21.1500 H   0  0  0  0  0  0  0  0  0  0  0  0
   -3.2290    2.1240  -18.8270 H   0  0  0  0  0  0  0  0  0  0  0  0
   -4.7200    0.9520  -17.2170 H   0  0  0  0  0  0  0  0  0  0  0  0
   -7.2930   -2.0290  -18.4280 H   0  0  0  0  0  0  0  0  0  0  0  0
   -6.0650   -3.1580  -21.5960 C   0  0  0  0  0  0  0  0  0  0  0  0
   -5.0890   -3.6920  -21.1290 O   0  0  0  0  0  0  0  0  0  0  0  0
   -6.8020   -3.5030  -22.8860 C   0  0  0  0  0  0  0  0  0  0  0  0
   -7.1670   -4.9970  -23.0820 C   0  0  0  0  0  0  0  0  0  0  0  0
   -6.2580   -5.0940  -24.2510 N   0  0  0  0  0  0  0  0  0  0  0  0
   -6.9470   -5.5040  -25.7380 S   0  0  0  0  0  0  0  0  0  0  0  0
   -5.8770   -5.4790  -26.7110 O   0  0  0  0  0  0  0  0  0  0  0  0
   -8.1350   -4.6780  -25.9170 O   0  0  0  0  0  0  0  0  0  0  0  0
   -7.5220   -7.1730  -25.5850 C   0  0  0  0  0  0  0  0  0  0  0  0
   -8.5760   -7.5590  -26.6010 C   0  0  0  0  0  0  0  0  0  0  0  0
   -8.9610   -7.3770  -25.1720 C   0  0  0  0  0  0  0  0  0  0  0  0
   -9.1700   -8.2680  -24.5930 H   0  0  0  0  0  0  0  0  0  0  0  0
   -9.5550   -6.5050  -24.9060 H   0  0  0  0  0  0  0  0  0  0  0  0
   -8.8540   -6.8120  -27.3380 H   0  0  0  0  0  0  0  0  0  0  0  0
   -8.5910   -8.5650  -26.9890 H   0  0  0  0  0  0  0  0  0  0  0  0
   -6.7070   -7.8290  -25.2930 H   0  0  0  0  0  0  0  0  0  0  0  0
   -5.8980   -3.6400  -24.1380 C   0  0  0  0  0  0  0  0  0  0  0  0
   -4.8360   -3.5270  -23.9360 H   0  0  0  0  0  0  0  0  0  0  0  0
   -6.1780   -3.0230  -25.0000 H   0  0  0  0  0  0  0  0  0  0  0  0
   -8.2210   -5.2080  -23.2940 H   0  0  0  0  0  0  0  0  0  0  0  0
   -6.8120   -5.6410  -22.2780 H   0  0  0  0  0  0  0  0  0  0  0  0
   -9.3630   -3.3570  -24.1130 H   0  0  0  0  0  0  0  0  0  0  0  0
   -8.3270   -2.1530  -24.9230 H   0  0  0  0  0  0  0  0  0  0  0  0
   -9.5110   -1.6120  -23.6930 H   0  0  0  0  0  0  0  0  0  0  0  0
  1  2  1  0  0  0  0
  1 43  1  0  0  0  0
  1 44  1  0  0  0  0
  1 45  1  0  0  0  0
  2  3  1  0  0  0  0
  2 24  1  0  0  0  0
  3  4  2  0  0  0  0
  3  5  1  0  0  0  0
  5  6  1  0  0  0  0
  5 22  1  0  0  0  0
  6  7  2  0  0  0  0
  6 15  1  0  0  0  0
  7  8  1  0  0  0  0
  7 21  1  0  0  0  0
  8  9  2  0  0  0  0
  9 10  1  0  0  0  0
  9 20  1  0  0  0  0
 10 11  2  0  0  0  0
 10 15  1  0  0  0  0
 11 12  1  0  0  0  0
 11 19  1  0  0  0  0
 12 13  2  0  0  0  0
 12 18  1  0  0  0  0
 13 14  1  0  0  0  0
 13 17  1  0  0  0  0
 14 15  2  0  0  0  0
 14 16  1  0  0  0  0
 22 23  2  0  0  0  0
 22 24  1  0  0  0  0
 24 25  1  0  0  0  0
 24 38  1  0  0  0  0
 25 26  1  0  0  0  0
 25 41  1  0  0  0  0
 25 42  1  0  0  0  0
 26 27  1  0  0  0  0
 26 38  1  0  0  0  0
 27 28  2  0  0  0  0
 27 29  2  0  0  0  0
 27 30  1  0  0  0  0
 30 31  1  0  0  0  0
 30 32  1  0  0  0  0
 30 37  1  0  0  0  0
 31 32  1  0  0  0  0
 31 35  1  0  0  0  0
 31 36  1  0  0  0  0
 32 33  1  0  0  0  0
 32 34  1  0  0  0  0
 38 39  1  0  0  0  0
 38 40  1  0  0  0  0
M  END
>  <MODEL>
      14

$$$$
best_conformers_79.pdb
 OpenBabel01292518153D

 45 49  0  0  0  0  0  0  0  0999 V2000
   -9.5570   -3.8830  -22.2770 C   0  0  0  0  0  0  0  0  0  0  0  0
   -8.2460   -3.4260  -21.8900 N   0  0  0  0  0  0  0  0  0  0  0  0
   -8.0930   -2.3200  -21.1120 C   0  0  0  0  0  0  0  0  0  0  0  0
   -8.9740   -1.6160  -20.6800 O   0  0  0  0  0  0  0  0  0  0  0  0
   -6.7110   -2.1520  -20.9250 N   0  0  0  0  0  0  0  0  0  0  0  0
   -6.1550   -1.2420  -19.9940 C   0  0  0  0  0  0  0  0  0  0  0  0
   -6.5600   -1.3040  -18.6840 C   0  0  0  0  0  0  0  0  0  0  0  0
   -6.0560   -0.5370  -17.6860 N   0  0  0  0  0  0  0  0  0  0  0  0
   -5.1300    0.3300  -18.0270 C   0  0  0  0  0  0  0  0  0  0  0  0
   -4.6460    0.5160  -19.3530 C   0  0  0  0  0  0  0  0  0  0  0  0
   -3.6530    1.4910  -19.6390 C   0  0  0  0  0  0  0  0  0  0  0  0
   -3.2080    1.6730  -20.9200 C   0  0  0  0  0  0  0  0  0  0  0  0
   -3.7390    0.8950  -21.9720 C   0  0  0  0  0  0  0  0  0  0  0  0
   -4.7000   -0.0570  -21.7240 C   0  0  0  0  0  0  0  0  0  0  0  0
   -5.1710   -0.2820  -20.3930 C   0  0  0  0  0  0  0  0  0  0  0  0
   -5.0940   -0.6430  -22.5520 H   0  0  0  0  0  0  0  0  0  0  0  0
   -3.3830    1.0560  -22.9890 H   0  0  0  0  0  0  0  0  0  0  0  0
   -2.4480    2.4230  -21.1350 H   0  0  0  0  0  0  0  0  0  0  0  0
   -3.2710    2.0880  -18.8150 H   0  0  0  0  0  0  0  0  0  0  0  0
   -4.7110    0.9490  -17.2340 H   0  0  0  0  0  0  0  0  0  0  0  0
   -7.3280   -2.0220  -18.3970 H   0  0  0  0  0  0  0  0  0  0  0  0
   -5.9880   -3.1540  -21.5700 C   0  0  0  0  0  0  0  0  0  0  0  0
   -4.7940   -3.3170  -21.5070 O   0  0  0  0  0  0  0  0  0  0  0  0
   -7.0020   -4.0250  -22.2730 C   0  0  0  0  0  0  0  0  0  0  0  0
   -6.7730   -5.5220  -22.0050 C   0  0  0  0  0  0  0  0  0  0  0  0
   -6.5090   -5.7200  -23.4510 N   0  0  0  0  0  0  0  0  0  0  0  0
   -7.3990   -6.9840  -24.0830 S   0  0  0  0  0  0  0  0  0  0  0  0
   -8.8190   -6.8070  -23.7750 O   0  0  0  0  0  0  0  0  0  0  0  0
   -6.7010   -8.1390  -23.5620 O   0  0  0  0  0  0  0  0  0  0  0  0
   -7.2470   -6.8120  -25.8400 C   0  0  0  0  0  0  0  0  0  0  0  0
   -8.3720   -6.0730  -26.5260 C   0  0  0  0  0  0  0  0  0  0  0  0
   -8.2780   -7.5510  -26.6580 C   0  0  0  0  0  0  0  0  0  0  0  0
   -7.9400   -7.9510  -27.6050 H   0  0  0  0  0  0  0  0  0  0  0  0
   -9.0050   -8.1680  -26.1360 H   0  0  0  0  0  0  0  0  0  0  0  0
   -8.0970   -5.4580  -27.3710 H   0  0  0  0  0  0  0  0  0  0  0  0
   -9.1600   -5.6810  -25.8900 H   0  0  0  0  0  0  0  0  0  0  0  0
   -6.2190   -6.7360  -26.2080 H   0  0  0  0  0  0  0  0  0  0  0  0
   -6.7820   -4.3090  -23.7760 C   0  0  0  0  0  0  0  0  0  0  0  0
   -7.6560   -4.1360  -24.4090 H   0  0  0  0  0  0  0  0  0  0  0  0
   -5.9160   -3.8180  -24.2190 H   0  0  0  0  0  0  0  0  0  0  0  0
   -7.6500   -6.0500  -21.6120 H   0  0  0  0  0  0  0  0  0  0  0  0
   -5.9000   -5.7430  -21.3910 H   0  0  0  0  0  0  0  0  0  0  0  0
  -10.1100   -4.1970  -21.3910 H   0  0  0  0  0  0  0  0  0  0  0  0
  -10.0990   -3.0700  -22.7620 H   0  0  0  0  0  0  0  0  0  0  0  0
   -9.4530   -4.7200  -22.9680 H   0  0  0  0  0  0  0  0  0  0  0  0
  1  2  1  0  0  0  0
  1 43  1  0  0  0  0
  1 44  1  0  0  0  0
  1 45  1  0  0  0  0
  2  3  1  0  0  0  0
  2 24  1  0  0  0  0
  3  4  2  0  0  0  0
  3  5  1  0  0  0  0
  5  6  1  0  0  0  0
  5 22  1  0  0  0  0
  6  7  2  0  0  0  0
  6 15  1  0  0  0  0
  7  8  1  0  0  0  0
  7 21  1  0  0  0  0
  8  9  2  0  0  0  0
  9 10  1  0  0  0  0
  9 20  1  0  0  0  0
 10 11  2  0  0  0  0
 10 15  1  0  0  0  0
 11 12  1  0  0  0  0
 11 19  1  0  0  0  0
 12 13  2  0  0  0  0
 12 18  1  0  0  0  0
 13 14  1  0  0  0  0
 13 17  1  0  0  0  0
 14 15  2  0  0  0  0
 14 16  1  0  0  0  0
 22 23  2  0  0  0  0
 22 24  1  0  0  0  0
 24 25  1  0  0  0  0
 24 38  1  0  0  0  0
 25 26  1  0  0  0  0
 25 41  1  0  0  0  0
 25 42  1  0  0  0  0
 26 27  1  0  0  0  0
 26 38  1  0  0  0  0
 27 28  2  0  0  0  0
 27 29  2  0  0  0  0
 27 30  1  0  0  0  0
 30 31  1  0  0  0  0
 30 32  1  0  0  0  0
 30 37  1  0  0  0  0
 31 32  1  0  0  0  0
 31 35  1  0  0  0  0
 31 36  1  0  0  0  0
 32 33  1  0  0  0  0
 32 34  1  0  0  0  0
 38 39  1  0  0  0  0
 38 40  1  0  0  0  0
M  END
>  <MODEL>
      15

$$$$
best_conformers_79.pdb
 OpenBabel01292518153D

 45 49  0  0  0  0  0  0  0  0999 V2000
   -8.7900   -2.4210  -23.9940 C   0  0  0  0  0  0  0  0  0  0  0  0
   -7.8380   -2.5410  -22.9100 N   0  0  0  0  0  0  0  0  0  0  0  0
   -7.8060   -1.6760  -21.8490 C   0  0  0  0  0  0  0  0  0  0  0  0
   -8.5520   -0.7470  -21.6340 O   0  0  0  0  0  0  0  0  0  0  0  0
   -6.7230   -2.0680  -21.0380 N   0  0  0  0  0  0  0  0  0  0  0  0
   -6.1450   -1.2190  -20.0390 C   0  0  0  0  0  0  0  0  0  0  0  0
   -6.5380   -1.3100  -18.7300 C   0  0  0  0  0  0  0  0  0  0  0  0
   -6.0390   -0.5430  -17.7220 N   0  0  0  0  0  0  0  0  0  0  0  0
   -5.1170    0.3380  -18.0290 C   0  0  0  0  0  0  0  0  0  0  0  0
   -4.6100    0.5390  -19.3460 C   0  0  0  0  0  0  0  0  0  0  0  0
   -3.6130    1.5110  -19.6380 C   0  0  0  0  0  0  0  0  0  0  0  0
   -3.1660    1.6730  -20.9200 C   0  0  0  0  0  0  0  0  0  0  0  0
   -3.6930    0.8790  -21.9620 C   0  0  0  0  0  0  0  0  0  0  0  0
   -4.6550   -0.0600  -21.7050 C   0  0  0  0  0  0  0  0  0  0  0  0
   -5.1370   -0.2580  -20.3830 C   0  0  0  0  0  0  0  0  0  0  0  0
   -5.0670   -0.6560  -22.5110 H   0  0  0  0  0  0  0  0  0  0  0  0
   -3.3420    1.0170  -22.9800 H   0  0  0  0  0  0  0  0  0  0  0  0
   -2.4110    2.4200  -21.1480 H   0  0  0  0  0  0  0  0  0  0  0  0
   -3.2310    2.1230  -18.8250 H   0  0  0  0  0  0  0  0  0  0  0  0
   -4.7230    0.9500  -17.2170 H   0  0  0  0  0  0  0  0  0  0  0  0
   -7.2930   -2.0320  -18.4330 H   0  0  0  0  0  0  0  0  0  0  0  0
   -6.0530   -3.1640  -21.5880 C   0  0  0  0  0  0  0  0  0  0  0  0
   -5.0820   -3.6980  -21.1100 O   0  0  0  0  0  0  0  0  0  0  0  0
   -6.7790   -3.5110  -22.8830 C   0  0  0  0  0  0  0  0  0  0  0  0
   -5.8660   -3.6460  -24.1280 C   0  0  0  0  0  0  0  0  0  0  0  0
   -6.2250   -5.0990  -24.2430 N   0  0  0  0  0  0  0  0  0  0  0  0
   -6.8930   -5.5090  -25.7380 S   0  0  0  0  0  0  0  0  0  0  0  0
   -8.0810   -4.6840  -25.9270 O   0  0  0  0  0  0  0  0  0  0  0  0
   -5.8100   -5.4800  -26.6960 O   0  0  0  0  0  0  0  0  0  0  0  0
   -7.4670   -7.1760  -25.5890 C   0  0  0  0  0  0  0  0  0  0  0  0
   -8.5220   -7.5500  -26.6060 C   0  0  0  0  0  0  0  0  0  0  0  0
   -8.9070   -7.3760  -25.1820 C   0  0  0  0  0  0  0  0  0  0  0  0
   -9.1180   -8.2690  -24.6110 H   0  0  0  0  0  0  0  0  0  0  0  0
   -9.4980   -6.5080  -24.9040 H   0  0  0  0  0  0  0  0  0  0  0  0
   -8.5560   -8.5490  -27.0020 H   0  0  0  0  0  0  0  0  0  0  0  0
   -8.7850   -6.7960  -27.3370 H   0  0  0  0  0  0  0  0  0  0  0  0
   -6.6500   -7.8310  -25.2980 H   0  0  0  0  0  0  0  0  0  0  0  0
   -7.1400   -5.0050  -23.0800 C   0  0  0  0  0  0  0  0  0  0  0  0
   -8.1910   -5.2190  -23.3010 H   0  0  0  0  0  0  0  0  0  0  0  0
   -6.7910   -5.6500  -22.2740 H   0  0  0  0  0  0  0  0  0  0  0  0
   -6.1380   -3.0300  -24.9920 H   0  0  0  0  0  0  0  0  0  0  0  0
   -4.8060   -3.5300  -23.9190 H   0  0  0  0  0  0  0  0  0  0  0  0
   -9.3250   -3.3670  -24.1340 H   0  0  0  0  0  0  0  0  0  0  0  0
   -8.2840   -2.1620  -24.9310 H   0  0  0  0  0  0  0  0  0  0  0  0
   -9.4800   -1.6240  -23.7140 H   0  0  0  0  0  0  0  0  0  0  0  0
  1  2  1  0  0  0  0
  1 43  1  0  0  0  0
  1 44  1  0  0  0  0
  1 45  1  0  0  0  0
  2  3  1  0  0  0  0
  2 24  1  0  0  0  0
  3  4  2  0  0  0  0
  3  5  1  0  0  0  0
  5  6  1  0  0  0  0
  5 22  1  0  0  0  0
  6  7  2  0  0  0  0
  6 15  1  0  0  0  0
  7  8  1  0  0  0  0
  7 21  1  0  0  0  0
  8  9  2  0  0  0  0
  9 10  1  0  0  0  0
  9 20  1  0  0  0  0
 10 11  2  0  0  0  0
 10 15  1  0  0  0  0
 11 12  1  0  0  0  0
 11 19  1  0  0  0  0
 12 13  2  0  0  0  0
 12 18  1  0  0  0  0
 13 14  1  0  0  0  0
 13 17  1  0  0  0  0
 14 15  2  0  0  0  0
 14 16  1  0  0  0  0
 22 23  2  0  0  0  0
 22 24  1  0  0  0  0
 24 25  1  0  0  0  0
 24 38  1  0  0  0  0
 25 26  1  0  0  0  0
 25 41  1  0  0  0  0
 25 42  1  0  0  0  0
 26 27  1  0  0  0  0
 26 38  1  0  0  0  0
 27 28  2  0  0  0  0
 27 29  2  0  0  0  0
 27 30  1  0  0  0  0
 30 31  1  0  0  0  0
 30 32  1  0  0  0  0
 30 37  1  0  0  0  0
 31 32  1  0  0  0  0
 31 35  1  0  0  0  0
 31 36  1  0  0  0  0
 32 33  1  0  0  0  0
 32 34  1  0  0  0  0
 38 39  1  0  0  0  0
 38 40  1  0  0  0  0
M  END
>  <MODEL>
      16

$$$$
best_conformers_79.pdb
 OpenBabel01292518153D

 45 49  0  0  0  0  0  0  0  0999 V2000
   -8.8470   -2.4220  -23.9650 C   0  0  0  0  0  0  0  0  0  0  0  0
   -7.8700   -2.5380  -22.8990 N   0  0  0  0  0  0  0  0  0  0  0  0
   -7.8310   -1.6800  -21.8270 C   0  0  0  0  0  0  0  0  0  0  0  0
   -8.5800   -0.7620  -21.5920 O   0  0  0  0  0  0  0  0  0  0  0  0
   -6.7300   -2.0670  -21.0350 N   0  0  0  0  0  0  0  0  0  0  0  0
   -6.1470   -1.2190  -20.0350 C   0  0  0  0  0  0  0  0  0  0  0  0
   -6.5340   -1.3050  -18.7250 C   0  0  0  0  0  0  0  0  0  0  0  0
   -6.0320   -0.5360  -17.7180 N   0  0  0  0  0  0  0  0  0  0  0  0
   -5.1110    0.3450  -18.0250 C   0  0  0  0  0  0  0  0  0  0  0  0
   -4.6080    0.5430  -19.3410 C   0  0  0  0  0  0  0  0  0  0  0  0
   -3.6120    1.5130  -19.6390 C   0  0  0  0  0  0  0  0  0  0  0  0
   -3.1680    1.6750  -20.9200 C   0  0  0  0  0  0  0  0  0  0  0  0
   -3.6990    0.8810  -21.9610 C   0  0  0  0  0  0  0  0  0  0  0  0
   -4.6600   -0.0580  -21.6990 C   0  0  0  0  0  0  0  0  0  0  0  0
   -5.1390   -0.2570  -20.3780 C   0  0  0  0  0  0  0  0  0  0  0  0
   -5.0760   -0.6550  -22.5030 H   0  0  0  0  0  0  0  0  0  0  0  0
   -3.3510    1.0170  -22.9790 H   0  0  0  0  0  0  0  0  0  0  0  0
   -2.4130    2.4200  -21.1540 H   0  0  0  0  0  0  0  0  0  0  0  0
   -3.2250    2.1270  -18.8300 H   0  0  0  0  0  0  0  0  0  0  0  0
   -4.7140    0.9590  -17.2140 H   0  0  0  0  0  0  0  0  0  0  0  0
   -7.2900   -2.0240  -18.4170 H   0  0  0  0  0  0  0  0  0  0  0  0
   -6.0490   -3.1420  -21.6130 C   0  0  0  0  0  0  0  0  0  0  0  0
   -5.0650   -3.6660  -21.1570 O   0  0  0  0  0  0  0  0  0  0  0  0
   -6.7880   -3.4870  -22.9040 C   0  0  0  0  0  0  0  0  0  0  0  0
   -5.9000   -3.5960  -24.1720 C   0  0  0  0  0  0  0  0  0  0  0  0
   -6.2030   -5.0420  -24.2990 N   0  0  0  0  0  0  0  0  0  0  0  0
   -6.9590   -5.5310  -25.7290 S   0  0  0  0  0  0  0  0  0  0  0  0
   -7.2780   -6.9380  -25.5690 O   0  0  0  0  0  0  0  0  0  0  0  0
   -7.9980   -4.5560  -26.0320 O   0  0  0  0  0  0  0  0  0  0  0  0
   -5.7600   -5.3670  -27.0330 C   0  0  0  0  0  0  0  0  0  0  0  0
   -6.3340   -5.3070  -28.4310 C   0  0  0  0  0  0  0  0  0  0  0  0
   -5.7330   -4.0790  -27.8180 C   0  0  0  0  0  0  0  0  0  0  0  0
   -6.4060   -3.2850  -27.4990 H   0  0  0  0  0  0  0  0  0  0  0  0
   -4.7660   -3.7450  -28.1830 H   0  0  0  0  0  0  0  0  0  0  0  0
   -5.7850   -5.8180  -29.2200 H   0  0  0  0  0  0  0  0  0  0  0  0
   -7.4170   -5.3590  -28.5310 H   0  0  0  0  0  0  0  0  0  0  0  0
   -4.8440   -5.9190  -26.8440 H   0  0  0  0  0  0  0  0  0  0  0  0
   -7.1150   -4.9880  -23.1040 C   0  0  0  0  0  0  0  0  0  0  0  0
   -8.1660   -5.2100  -23.3220 H   0  0  0  0  0  0  0  0  0  0  0  0
   -6.7550   -5.6300  -22.3010 H   0  0  0  0  0  0  0  0  0  0  0  0
   -6.2010   -2.9760  -25.0230 H   0  0  0  0  0  0  0  0  0  0  0  0
   -4.8420   -3.4560  -23.9670 H   0  0  0  0  0  0  0  0  0  0  0  0
   -8.3650   -2.1630  -24.9160 H   0  0  0  0  0  0  0  0  0  0  0  0
   -9.3890   -3.3650  -24.0990 H   0  0  0  0  0  0  0  0  0  0  0  0
   -9.5420   -1.6300  -23.6800 H   0  0  0  0  0  0  0  0  0  0  0  0
  1  2  1  0  0  0  0
  1 43  1  0  0  0  0
  1 44  1  0  0  0  0
  1 45  1  0  0  0  0
  2  3  1  0  0  0  0
  2 24  1  0  0  0  0
  3  4  2  0  0  0  0
  3  5  1  0  0  0  0
  5  6  1  0  0  0  0
  5 22  1  0  0  0  0
  6  7  2  0  0  0  0
  6 15  1  0  0  0  0
  7  8  1  0  0  0  0
  7 21  1  0  0  0  0
  8  9  2  0  0  0  0
  9 10  1  0  0  0  0
  9 20  1  0  0  0  0
 10 11  2  0  0  0  0
 10 15  1  0  0  0  0
 11 12  1  0  0  0  0
 11 19  1  0  0  0  0
 12 13  2  0  0  0  0
 12 18  1  0  0  0  0
 13 14  1  0  0  0  0
 13 17  1  0  0  0  0
 14 15  2  0  0  0  0
 14 16  1  0  0  0  0
 22 23  2  0  0  0  0
 22 24  1  0  0  0  0
 24 25  1  0  0  0  0
 24 38  1  0  0  0  0
 25 26  1  0  0  0  0
 25 41  1  0  0  0  0
 25 42  1  0  0  0  0
 26 27  1  0  0  0  0
 26 38  1  0  0  0  0
 27 28  2  0  0  0  0
 27 29  2  0  0  0  0
 27 30  1  0  0  0  0
 30 31  1  0  0  0  0
 30 32  1  0  0  0  0
 30 37  1  0  0  0  0
 31 32  1  0  0  0  0
 31 35  1  0  0  0  0
 31 36  1  0  0  0  0
 32 33  1  0  0  0  0
 32 34  1  0  0  0  0
 38 39  1  0  0  0  0
 38 40  1  0  0  0  0
M  END
>  <MODEL>
      17

$$$$
best_conformers_79.pdb
 OpenBabel01292518153D

 45 49  0  0  0  0  0  0  0  0999 V2000
   -8.5040   -2.5130  -24.1550 C   0  0  0  0  0  0  0  0  0  0  0  0
   -7.7170   -2.6280  -22.9460 N   0  0  0  0  0  0  0  0  0  0  0  0
   -7.6060   -1.6140  -22.0400 C   0  0  0  0  0  0  0  0  0  0  0  0
   -8.1330   -0.5260  -22.0840 O   0  0  0  0  0  0  0  0  0  0  0  0
   -6.7410   -2.0670  -21.0280 N   0  0  0  0  0  0  0  0  0  0  0  0
   -6.1540   -1.2140  -20.0410 C   0  0  0  0  0  0  0  0  0  0  0  0
   -6.5360   -1.3110  -18.7300 C   0  0  0  0  0  0  0  0  0  0  0  0
   -6.0400   -0.5420  -17.7230 N   0  0  0  0  0  0  0  0  0  0  0  0
   -5.1210    0.3400  -18.0340 C   0  0  0  0  0  0  0  0  0  0  0  0
   -4.6150    0.5410  -19.3490 C   0  0  0  0  0  0  0  0  0  0  0  0
   -3.6130    1.5060  -19.6390 C   0  0  0  0  0  0  0  0  0  0  0  0
   -3.1500    1.6540  -20.9160 C   0  0  0  0  0  0  0  0  0  0  0  0
   -3.6600    0.8460  -21.9560 C   0  0  0  0  0  0  0  0  0  0  0  0
   -4.6250   -0.0930  -21.7020 C   0  0  0  0  0  0  0  0  0  0  0  0
   -5.1390   -0.2620  -20.3880 C   0  0  0  0  0  0  0  0  0  0  0  0
   -5.0070   -0.7200  -22.5020 H   0  0  0  0  0  0  0  0  0  0  0  0
   -3.2920    0.9720  -22.9690 H   0  0  0  0  0  0  0  0  0  0  0  0
   -2.3910    2.3980  -21.1430 H   0  0  0  0  0  0  0  0  0  0  0  0
   -3.2350    2.1210  -18.8270 H   0  0  0  0  0  0  0  0  0  0  0  0
   -4.7260    0.9510  -17.2210 H   0  0  0  0  0  0  0  0  0  0  0  0
   -7.2880   -2.0380  -18.4340 H   0  0  0  0  0  0  0  0  0  0  0  0
   -6.2860   -3.3620  -21.2880 C   0  0  0  0  0  0  0  0  0  0  0  0
   -5.5180   -3.9790  -20.5910 O   0  0  0  0  0  0  0  0  0  0  0  0
   -6.9270   -3.7860  -22.6030 C   0  0  0  0  0  0  0  0  0  0  0  0
   -5.9350   -4.3590  -23.6500 C   0  0  0  0  0  0  0  0  0  0  0  0
   -6.6110   -5.6790  -23.6110 N   0  0  0  0  0  0  0  0  0  0  0  0
   -5.6830   -6.9940  -23.0860 S   0  0  0  0  0  0  0  0  0  0  0  0
   -4.9570   -6.6000  -21.8890 O   0  0  0  0  0  0  0  0  0  0  0  0
   -6.5670   -8.1400  -23.0620 O   0  0  0  0  0  0  0  0  0  0  0  0
   -4.4790   -7.2870  -24.3640 C   0  0  0  0  0  0  0  0  0  0  0  0
   -4.8520   -8.1190  -25.5580 C   0  0  0  0  0  0  0  0  0  0  0  0
   -4.0090   -8.7220  -24.4830 C   0  0  0  0  0  0  0  0  0  0  0  0
   -2.9480   -8.8800  -24.6540 H   0  0  0  0  0  0  0  0  0  0  0  0
   -4.4520   -9.4340  -23.7960 H   0  0  0  0  0  0  0  0  0  0  0  0
   -4.3690   -7.8820  -26.4970 H   0  0  0  0  0  0  0  0  0  0  0  0
   -5.8990   -8.3790  -25.6630 H   0  0  0  0  0  0  0  0  0  0  0  0
   -3.7790   -6.4590  -24.4420 H   0  0  0  0  0  0  0  0  0  0  0  0
   -7.6110   -5.1780  -22.6000 C   0  0  0  0  0  0  0  0  0  0  0  0
   -7.5880   -5.7030  -21.6410 H   0  0  0  0  0  0  0  0  0  0  0  0
   -8.6330   -5.1940  -22.9900 H   0  0  0  0  0  0  0  0  0  0  0  0
   -5.9950   -3.9120  -24.6450 H   0  0  0  0  0  0  0  0  0  0  0  0
   -4.8950   -4.3800  -23.3180 H   0  0  0  0  0  0  0  0  0  0  0  0
   -8.1420   -1.6840  -24.7760 H   0  0  0  0  0  0  0  0  0  0  0  0
   -8.4100   -3.4520  -24.7150 H   0  0  0  0  0  0  0  0  0  0  0  0
   -9.5580   -2.3390  -23.9100 H   0  0  0  0  0  0  0  0  0  0  0  0
  1  2  1  0  0  0  0
  1 43  1  0  0  0  0
  1 44  1  0  0  0  0
  1 45  1  0  0  0  0
  2  3  1  0  0  0  0
  2 24  1  0  0  0  0
  3  4  2  0  0  0  0
  3  5  1  0  0  0  0
  5  6  1  0  0  0  0
  5 22  1  0  0  0  0
  6  7  2  0  0  0  0
  6 15  1  0  0  0  0
  7  8  1  0  0  0  0
  7 21  1  0  0  0  0
  8  9  2  0  0  0  0
  9 10  1  0  0  0  0
  9 20  1  0  0  0  0
 10 11  2  0  0  0  0
 10 15  1  0  0  0  0
 11 12  1  0  0  0  0
 11 19  1  0  0  0  0
 12 13  2  0  0  0  0
 12 18  1  0  0  0  0
 13 14  1  0  0  0  0
 13 17  1  0  0  0  0
 14 15  2  0  0  0  0
 14 16  1  0  0  0  0
 22 23  2  0  0  0  0
 22 24  1  0  0  0  0
 24 25  1  0  0  0  0
 24 38  1  0  0  0  0
 25 26  1  0  0  0  0
 25 41  1  0  0  0  0
 25 42  1  0  0  0  0
 26 27  1  0  0  0  0
 26 38  1  0  0  0  0
 27 28  2  0  0  0  0
 27 29  2  0  0  0  0
 27 30  1  0  0  0  0
 30 31  1  0  0  0  0
 30 32  1  0  0  0  0
 30 37  1  0  0  0  0
 31 32  1  0  0  0  0
 31 35  1  0  0  0  0
 31 36  1  0  0  0  0
 32 33  1  0  0  0  0
 32 34  1  0  0  0  0
 38 39  1  0  0  0  0
 38 40  1  0  0  0  0
M  END
>  <MODEL>
      18

$$$$
best_conformers_79.pdb
 OpenBabel01292518153D

 45 49  0  0  0  0  0  0  0  0999 V2000
   -8.7860   -2.3380  -24.0040 C   0  0  0  0  0  0  0  0  0  0  0  0
   -7.8390   -2.5200  -22.9150 N   0  0  0  0  0  0  0  0  0  0  0  0
   -7.8110   -1.6730  -21.8390 C   0  0  0  0  0  0  0  0  0  0  0  0
   -8.5580   -0.7510  -21.6130 O   0  0  0  0  0  0  0  0  0  0  0  0
   -6.7260   -2.0710  -21.0310 N   0  0  0  0  0  0  0  0  0  0  0  0
   -6.1450   -1.2200  -20.0330 C   0  0  0  0  0  0  0  0  0  0  0  0
   -6.5330   -1.3050  -18.7230 C   0  0  0  0  0  0  0  0  0  0  0  0
   -6.0310   -0.5350  -17.7180 N   0  0  0  0  0  0  0  0  0  0  0  0
   -5.1100    0.3470  -18.0240 C   0  0  0  0  0  0  0  0  0  0  0  0
   -4.6080    0.5430  -19.3400 C   0  0  0  0  0  0  0  0  0  0  0  0
   -3.6120    1.5140  -19.6380 C   0  0  0  0  0  0  0  0  0  0  0  0
   -3.1680    1.6750  -20.9210 C   0  0  0  0  0  0  0  0  0  0  0  0
   -3.6990    0.8800  -21.9610 C   0  0  0  0  0  0  0  0  0  0  0  0
   -4.6610   -0.0590  -21.6980 C   0  0  0  0  0  0  0  0  0  0  0  0
   -5.1390   -0.2560  -20.3770 C   0  0  0  0  0  0  0  0  0  0  0  0
   -5.0740   -0.6590  -22.5020 H   0  0  0  0  0  0  0  0  0  0  0  0
   -3.3500    1.0150  -22.9790 H   0  0  0  0  0  0  0  0  0  0  0  0
   -2.4120    2.4200  -21.1550 H   0  0  0  0  0  0  0  0  0  0  0  0
   -3.2240    2.1270  -18.8300 H   0  0  0  0  0  0  0  0  0  0  0  0
   -4.7130    0.9610  -17.2140 H   0  0  0  0  0  0  0  0  0  0  0  0
   -7.2890   -2.0230  -18.4150 H   0  0  0  0  0  0  0  0  0  0  0  0
   -6.0450   -3.1510  -21.6020 C   0  0  0  0  0  0  0  0  0  0  0  0
   -5.0590   -3.6710  -21.1420 O   0  0  0  0  0  0  0  0  0  0  0  0
   -6.7880   -3.5060  -22.8880 C   0  0  0  0  0  0  0  0  0  0  0  0
   -5.9030   -3.6760  -24.1500 C   0  0  0  0  0  0  0  0  0  0  0  0
   -6.1960   -5.1280  -24.1880 N   0  0  0  0  0  0  0  0  0  0  0  0
   -6.8430   -5.7650  -25.6120 S   0  0  0  0  0  0  0  0  0  0  0  0
   -6.8600   -7.2060  -25.4660 O   0  0  0  0  0  0  0  0  0  0  0  0
   -8.0620   -5.0230  -25.9100 O   0  0  0  0  0  0  0  0  0  0  0  0
   -5.6710   -5.4150  -26.9000 C   0  0  0  0  0  0  0  0  0  0  0  0
   -5.6250   -6.3910  -28.0540 C   0  0  0  0  0  0  0  0  0  0  0  0
   -4.4990   -6.3410  -27.0660 C   0  0  0  0  0  0  0  0  0  0  0  0
   -3.5540   -5.9020  -27.3790 H   0  0  0  0  0  0  0  0  0  0  0  0
   -4.4170   -7.1540  -26.3470 H   0  0  0  0  0  0  0  0  0  0  0  0
   -6.3150   -7.2320  -28.0100 H   0  0  0  0  0  0  0  0  0  0  0  0
   -5.4660   -5.9870  -29.0520 H   0  0  0  0  0  0  0  0  0  0  0  0
   -5.5790   -4.3510  -27.0950 H   0  0  0  0  0  0  0  0  0  0  0  0
   -7.1580   -5.0030  -23.0420 C   0  0  0  0  0  0  0  0  0  0  0  0
   -8.2040   -5.1870  -23.3120 H   0  0  0  0  0  0  0  0  0  0  0  0
   -6.8700   -5.6290  -22.1960 H   0  0  0  0  0  0  0  0  0  0  0  0
   -4.8420   -3.5050  -23.9760 H   0  0  0  0  0  0  0  0  0  0  0  0
   -6.2340   -3.1070  -25.0270 H   0  0  0  0  0  0  0  0  0  0  0  0
   -9.8070   -2.5270  -23.6560 H   0  0  0  0  0  0  0  0  0  0  0  0
   -8.7360   -1.3040  -24.3630 H   0  0  0  0  0  0  0  0  0  0  0  0
   -8.5520   -3.0220  -24.8250 H   0  0  0  0  0  0  0  0  0  0  0  0
  1  2  1  0  0  0  0
  1 43  1  0  0  0  0
  1 44  1  0  0  0  0
  1 45  1  0  0  0  0
  2  3  1  0  0  0  0
  2 24  1  0  0  0  0
  3  4  2  0  0  0  0
  3  5  1  0  0  0  0
  5  6  1  0  0  0  0
  5 22  1  0  0  0  0
  6  7  2  0  0  0  0
  6 15  1  0  0  0  0
  7  8  1  0  0  0  0
  7 21  1  0  0  0  0
  8  9  2  0  0  0  0
  9 10  1  0  0  0  0
  9 20  1  0  0  0  0
 10 11  2  0  0  0  0
 10 15  1  0  0  0  0
 11 12  1  0  0  0  0
 11 19  1  0  0  0  0
 12 13  2  0  0  0  0
 12 18  1  0  0  0  0
 13 14  1  0  0  0  0
 13 17  1  0  0  0  0
 14 15  2  0  0  0  0
 14 16  1  0  0  0  0
 22 23  2  0  0  0  0
 22 24  1  0  0  0  0
 24 25  1  0  0  0  0
 24 38  1  0  0  0  0
 25 26  1  0  0  0  0
 25 41  1  0  0  0  0
 25 42  1  0  0  0  0
 26 27  1  0  0  0  0
 26 38  1  0  0  0  0
 27 28  2  0  0  0  0
 27 29  2  0  0  0  0
 27 30  1  0  0  0  0
 30 31  1  0  0  0  0
 30 32  1  0  0  0  0
 30 37  1  0  0  0  0
 31 32  1  0  0  0  0
 31 35  1  0  0  0  0
 31 36  1  0  0  0  0
 32 33  1  0  0  0  0
 32 34  1  0  0  0  0
 38 39  1  0  0  0  0
 38 40  1  0  0  0  0
M  END
>  <MODEL>
      19

$$$$
best_conformers_79.pdb
 OpenBabel01292518153D

 45 49  0  0  0  0  0  0  0  0999 V2000
   -7.7780   -5.1750  -22.1890 C   0  0  0  0  0  0  0  0  0  0  0  0
   -7.3750   -3.8020  -21.9970 N   0  0  0  0  0  0  0  0  0  0  0  0
   -6.4960   -3.4540  -20.9990 C   0  0  0  0  0  0  0  0  0  0  0  0
   -5.8470   -4.1950  -20.2920 O   0  0  0  0  0  0  0  0  0  0  0  0
   -6.4840   -2.0520  -20.9650 N   0  0  0  0  0  0  0  0  0  0  0  0
   -5.9410   -1.2400  -19.9360 C   0  0  0  0  0  0  0  0  0  0  0  0
   -6.4210   -1.3160  -18.6550 C   0  0  0  0  0  0  0  0  0  0  0  0
   -6.0060   -0.5070  -17.6480 N   0  0  0  0  0  0  0  0  0  0  0  0
   -5.0950    0.3980  -17.9360 C   0  0  0  0  0  0  0  0  0  0  0  0
   -4.5350    0.5950  -19.2360 C   0  0  0  0  0  0  0  0  0  0  0  0
   -3.5670    1.5970  -19.5350 C   0  0  0  0  0  0  0  0  0  0  0  0
   -3.0800    1.7360  -20.8070 C   0  0  0  0  0  0  0  0  0  0  0  0
   -3.5360    0.8960  -21.8470 C   0  0  0  0  0  0  0  0  0  0  0  0
   -4.4640   -0.0760  -21.5880 C   0  0  0  0  0  0  0  0  0  0  0  0
   -4.9810   -0.2460  -20.2750 C   0  0  0  0  0  0  0  0  0  0  0  0
   -4.8230   -0.7170  -22.3880 H   0  0  0  0  0  0  0  0  0  0  0  0
   -3.1600    1.0180  -22.8580 H   0  0  0  0  0  0  0  0  0  0  0  0
   -2.3390    2.4970  -21.0350 H   0  0  0  0  0  0  0  0  0  0  0  0
   -3.2220    2.2510  -18.7400 H   0  0  0  0  0  0  0  0  0  0  0  0
   -4.7610    1.0290  -17.1120 H   0  0  0  0  0  0  0  0  0  0  0  0
   -7.1980   -2.0370  -18.4080 H   0  0  0  0  0  0  0  0  0  0  0  0
   -7.3400   -1.5050  -21.9140 C   0  0  0  0  0  0  0  0  0  0  0  0
   -7.5650   -0.3270  -22.0390 O   0  0  0  0  0  0  0  0  0  0  0  0
   -7.9800   -2.6660  -22.6460 C   0  0  0  0  0  0  0  0  0  0  0  0
   -8.0410   -2.6270  -24.2020 C   0  0  0  0  0  0  0  0  0  0  0  0
   -9.5010   -2.4340  -24.1140 N   0  0  0  0  0  0  0  0  0  0  0  0
  -10.6290   -3.3170  -24.9440 S   0  0  0  0  0  0  0  0  0  0  0  0
  -10.5030   -2.9800  -26.3450 O   0  0  0  0  0  0  0  0  0  0  0  0
  -11.8370   -3.0970  -24.1690 O   0  0  0  0  0  0  0  0  0  0  0  0
  -10.3110   -5.0730  -24.7750 C   0  0  0  0  0  0  0  0  0  0  0  0
  -11.0660   -5.9570  -25.7400 C   0  0  0  0  0  0  0  0  0  0  0  0
   -9.5740   -5.9880  -25.7230 C   0  0  0  0  0  0  0  0  0  0  0  0
   -9.1300   -6.8800  -25.2770 H   0  0  0  0  0  0  0  0  0  0  0  0
   -9.0490   -5.5600  -26.5730 H   0  0  0  0  0  0  0  0  0  0  0  0
  -11.5440   -5.4330  -26.5650 H   0  0  0  0  0  0  0  0  0  0  0  0
  -11.6250   -6.8020  -25.3450 H   0  0  0  0  0  0  0  0  0  0  0  0
  -10.3110   -5.3350  -23.7230 H   0  0  0  0  0  0  0  0  0  0  0  0
   -9.5170   -2.4970  -22.6470 C   0  0  0  0  0  0  0  0  0  0  0  0
  -10.0980   -3.3120  -22.2120 H   0  0  0  0  0  0  0  0  0  0  0  0
   -9.8260   -1.5520  -22.1990 H   0  0  0  0  0  0  0  0  0  0  0  0
   -7.5350   -1.7650  -24.6390 H   0  0  0  0  0  0  0  0  0  0  0  0
   -7.7350   -3.5430  -24.7190 H   0  0  0  0  0  0  0  0  0  0  0  0
   -7.0860   -5.7730  -21.5930 H   0  0  0  0  0  0  0  0  0  0  0  0
   -8.7990   -5.3510  -21.8300 H   0  0  0  0  0  0  0  0  0  0  0  0
   -7.7120   -5.4820  -23.2400 H   0  0  0  0  0  0  0  0  0  0  0  0
  1  2  1  0  0  0  0
  1 43  1  0  0  0  0
  1 44  1  0  0  0  0
  1 45  1  0  0  0  0
  2  3  1  0  0  0  0
  2 24  1  0  0  0  0
  3  4  2  0  0  0  0
  3  5  1  0  0  0  0
  5  6  1  0  0  0  0
  5 22  1  0  0  0  0
  6  7  2  0  0  0  0
  6 15  1  0  0  0  0
  7  8  1  0  0  0  0
  7 21  1  0  0  0  0
  8  9  2  0  0  0  0
  9 10  1  0  0  0  0
  9 20  1  0  0  0  0
 10 11  2  0  0  0  0
 10 15  1  0  0  0  0
 11 12  1  0  0  0  0
 11 19  1  0  0  0  0
 12 13  2  0  0  0  0
 12 18  1  0  0  0  0
 13 14  1  0  0  0  0
 13 17  1  0  0  0  0
 14 15  2  0  0  0  0
 14 16  1  0  0  0  0
 22 23  2  0  0  0  0
 22 24  1  0  0  0  0
 24 25  1  0  0  0  0
 24 38  1  0  0  0  0
 25 26  1  0  0  0  0
 25 41  1  0  0  0  0
 25 42  1  0  0  0  0
 26 27  1  0  0  0  0
 26 38  1  0  0  0  0
 27 28  2  0  0  0  0
 27 29  2  0  0  0  0
 27 30  1  0  0  0  0
 30 31  1  0  0  0  0
 30 32  1  0  0  0  0
 30 37  1  0  0  0  0
 31 32  1  0  0  0  0
 31 35  1  0  0  0  0
 31 36  1  0  0  0  0
 32 33  1  0  0  0  0
 32 34  1  0  0  0  0
 38 39  1  0  0  0  0
 38 40  1  0  0  0  0
M  END
>  <MODEL>
      20

$$$$
best_conformers_79.pdb
 OpenBabel01292518153D

 45 49  0  0  0  0  0  0  0  0999 V2000
   -6.2740   -5.1250  -22.9890 C   0  0  0  0  0  0  0  0  0  0  0  0
   -6.6380   -3.9440  -22.2320 N   0  0  0  0  0  0  0  0  0  0  0  0
   -5.9840   -3.5330  -21.1000 C   0  0  0  0  0  0  0  0  0  0  0  0
   -5.1580   -4.1310  -20.4540 O   0  0  0  0  0  0  0  0  0  0  0  0
   -6.4700   -2.2380  -20.8260 N   0  0  0  0  0  0  0  0  0  0  0  0
   -5.9440   -1.3230  -19.8850 C   0  0  0  0  0  0  0  0  0  0  0  0
   -6.4280   -1.3570  -18.6090 C   0  0  0  0  0  0  0  0  0  0  0  0
   -6.0240   -0.5200  -17.6220 N   0  0  0  0  0  0  0  0  0  0  0  0
   -5.1230    0.3810  -17.9430 C   0  0  0  0  0  0  0  0  0  0  0  0
   -4.5810    0.5540  -19.2510 C   0  0  0  0  0  0  0  0  0  0  0  0
   -3.6200    1.5580  -19.5400 C   0  0  0  0  0  0  0  0  0  0  0  0
   -3.1460    1.7170  -20.8120 C   0  0  0  0  0  0  0  0  0  0  0  0
   -3.6130    0.8880  -21.8580 C   0  0  0  0  0  0  0  0  0  0  0  0
   -4.5310   -0.1010  -21.6030 C   0  0  0  0  0  0  0  0  0  0  0  0
   -5.0240   -0.3030  -20.2800 C   0  0  0  0  0  0  0  0  0  0  0  0
   -4.8800   -0.7380  -22.4120 H   0  0  0  0  0  0  0  0  0  0  0  0
   -3.2400    1.0380  -22.8680 H   0  0  0  0  0  0  0  0  0  0  0  0
   -2.4130    2.4900  -21.0300 H   0  0  0  0  0  0  0  0  0  0  0  0
   -3.2850    2.1940  -18.7240 H   0  0  0  0  0  0  0  0  0  0  0  0
   -4.7750    1.0400  -17.1470 H   0  0  0  0  0  0  0  0  0  0  0  0
   -7.1970   -2.0830  -18.3550 H   0  0  0  0  0  0  0  0  0  0  0  0
   -7.4070   -1.8220  -21.7510 C   0  0  0  0  0  0  0  0  0  0  0  0
   -7.9960   -0.7650  -21.7180 O   0  0  0  0  0  0  0  0  0  0  0  0
   -7.4860   -2.9160  -22.7720 C   0  0  0  0  0  0  0  0  0  0  0  0
   -7.2070   -2.4190  -24.2050 C   0  0  0  0  0  0  0  0  0  0  0  0
   -8.5750   -2.8390  -24.5660 N   0  0  0  0  0  0  0  0  0  0  0  0
   -9.5640   -1.8070  -25.4020 S   0  0  0  0  0  0  0  0  0  0  0  0
   -8.7900   -1.3760  -26.5460 O   0  0  0  0  0  0  0  0  0  0  0  0
  -10.8580   -2.4460  -25.5300 O   0  0  0  0  0  0  0  0  0  0  0  0
   -9.8060   -0.3900  -24.3490 C   0  0  0  0  0  0  0  0  0  0  0  0
  -11.1440    0.3010  -24.3820 C   0  0  0  0  0  0  0  0  0  0  0  0
  -10.6930   -0.3650  -23.1250 C   0  0  0  0  0  0  0  0  0  0  0  0
  -11.2150   -1.2530  -22.7770 H   0  0  0  0  0  0  0  0  0  0  0  0
  -10.3520    0.2640  -22.3060 H   0  0  0  0  0  0  0  0  0  0  0  0
  -11.9100   -0.2120  -24.9670 H   0  0  0  0  0  0  0  0  0  0  0  0
  -11.1380    1.3880  -24.4300 H   0  0  0  0  0  0  0  0  0  0  0  0
   -8.8850    0.1910  -24.3390 H   0  0  0  0  0  0  0  0  0  0  0  0
   -8.9130   -3.2880  -23.2020 C   0  0  0  0  0  0  0  0  0  0  0  0
   -9.6920   -2.7010  -22.7140 H   0  0  0  0  0  0  0  0  0  0  0  0
   -9.1840   -4.3440  -23.1370 H   0  0  0  0  0  0  0  0  0  0  0  0
   -7.0290   -1.3430  -24.2630 H   0  0  0  0  0  0  0  0  0  0  0  0
   -6.4080   -2.9340  -24.7510 H   0  0  0  0  0  0  0  0  0  0  0  0
   -5.2070   -5.1230  -23.2280 H   0  0  0  0  0  0  0  0  0  0  0  0
   -6.8420   -5.1400  -23.9260 H   0  0  0  0  0  0  0  0  0  0  0  0
   -6.5000   -6.0340  -22.4300 H   0  0  0  0  0  0  0  0  0  0  0  0
  1  2  1  0  0  0  0
  1 43  1  0  0  0  0
  1 44  1  0  0  0  0
  1 45  1  0  0  0  0
  2  3  1  0  0  0  0
  2 24  1  0  0  0  0
  3  4  2  0  0  0  0
  3  5  1  0  0  0  0
  5  6  1  0  0  0  0
  5 22  1  0  0  0  0
  6  7  2  0  0  0  0
  6 15  1  0  0  0  0
  7  8  1  0  0  0  0
  7 21  1  0  0  0  0
  8  9  2  0  0  0  0
  9 10  1  0  0  0  0
  9 20  1  0  0  0  0
 10 11  2  0  0  0  0
 10 15  1  0  0  0  0
 11 12  1  0  0  0  0
 11 19  1  0  0  0  0
 12 13  2  0  0  0  0
 12 18  1  0  0  0  0
 13 14  1  0  0  0  0
 13 17  1  0  0  0  0
 14 15  2  0  0  0  0
 14 16  1  0  0  0  0
 22 23  2  0  0  0  0
 22 24  1  0  0  0  0
 24 25  1  0  0  0  0
 24 38  1  0  0  0  0
 25 26  1  0  0  0  0
 25 41  1  0  0  0  0
 25 42  1  0  0  0  0
 26 27  1  0  0  0  0
 26 38  1  0  0  0  0
 27 28  2  0  0  0  0
 27 29  2  0  0  0  0
 27 30  1  0  0  0  0
 30 31  1  0  0  0  0
 30 32  1  0  0  0  0
 30 37  1  0  0  0  0
 31 32  1  0  0  0  0
 31 35  1  0  0  0  0
 31 36  1  0  0  0  0
 32 33  1  0  0  0  0
 32 34  1  0  0  0  0
 38 39  1  0  0  0  0
 38 40  1  0  0  0  0
M  END
>  <MODEL>
      21

$$$$
