best_conformers_23.pdb
 OpenBabel01292518153D

 68 73  0  0  1  0  0  0  0  0999 V2000
   -6.2160   -0.6310  -28.5520 C   0  0  0  0  0  0  0  0  0  0  0  0
   -6.1240   -1.5280  -27.4170 N   0  0  0  0  0  0  0  0  0  0  0  0
   -6.7100   -2.7480  -27.5390 C   0  0  0  0  0  0  0  0  0  0  0  0
   -7.2750   -3.0440  -28.5730 O   0  0  0  0  0  0  0  0  0  0  0  0
   -6.6860   -3.6870  -26.3310 C   0  0  0  0  0  0  0  0  0  0  0  0
   -7.6250   -3.2930  -25.2960 N   0  0  0  0  0  0  0  0  0  0  0  0
   -7.2120   -2.4030  -24.2270 C   0  0  0  0  0  0  0  0  0  0  0  0
   -7.9280   -2.7370  -22.8990 C   0  0  2  0  0  0  0  0  0  0  0  0
   -7.5940   -1.6040  -21.9340 C   0  0  0  0  0  0  0  0  0  0  0  0
   -7.9480   -0.4420  -22.0150 O   0  0  0  0  0  0  0  0  0  0  0  0
   -6.7480   -2.0830  -20.9620 N   0  0  0  0  0  0  0  0  0  0  0  0
   -6.1560   -1.2230  -20.0130 C   0  0  0  0  0  0  0  0  0  0  0  0
   -6.5440   -1.3280  -18.7030 C   0  0  0  0  0  0  0  0  0  0  0  0
   -6.0620   -0.5660  -17.6950 N   0  0  0  0  0  0  0  0  0  0  0  0
   -5.1470    0.3210  -18.0160 C   0  0  0  0  0  0  0  0  0  0  0  0
   -4.6430    0.5170  -19.3340 C   0  0  0  0  0  0  0  0  0  0  0  0
   -3.6510    1.4940  -19.6080 C   0  0  0  0  0  0  0  0  0  0  0  0
   -3.1570    1.6450  -20.8750 C   0  0  0  0  0  0  0  0  0  0  0  0
   -3.6360    0.8310  -21.9260 C   0  0  0  0  0  0  0  0  0  0  0  0
   -4.6070   -0.1120  -21.6930 C   0  0  0  0  0  0  0  0  0  0  0  0
   -5.1460   -0.2820  -20.3810 C   0  0  0  0  0  0  0  0  0  0  0  0
   -4.9740   -0.7210  -22.5170 H   0  0  0  0  0  0  0  0  0  0  0  0
   -3.2310    0.9610  -22.9260 H   0  0  0  0  0  0  0  0  0  0  0  0
   -2.3930    2.3910  -21.0790 H   0  0  0  0  0  0  0  0  0  0  0  0
   -3.2960    2.1110  -18.7880 H   0  0  0  0  0  0  0  0  0  0  0  0
   -4.7560    0.9410  -17.2110 H   0  0  0  0  0  0  0  0  0  0  0  0
   -7.3040   -2.0630  -18.4430 H   0  0  0  0  0  0  0  0  0  0  0  0
   -6.3300   -3.4570  -21.1450 C   0  0  0  0  0  0  0  0  0  0  0  0
   -7.3900   -3.9900  -22.1110 C   0  0  2  0  0  0  0  0  0  0  0  0
   -6.9720   -5.2430  -22.8860 C   0  0  0  0  0  0  0  0  0  0  0  0
   -5.6430   -5.1510  -23.4430 N   0  0  0  0  0  0  0  0  0  0  0  0
   -5.0910   -6.0490  -24.3330 C   0  0  0  0  0  0  0  0  0  0  0  0
   -5.7430   -7.2220  -24.7430 C   0  0  0  0  0  0  0  0  0  0  0  0
   -5.1100   -8.0800  -25.6400 C   0  0  0  0  0  0  0  0  0  0  0  0
   -3.8210   -7.8310  -26.0920 C   0  0  0  0  0  0  0  0  0  0  0  0
   -3.1780   -6.6670  -25.6940 C   0  0  0  0  0  0  0  0  0  0  0  0
   -3.8130   -5.7680  -24.8530 C   0  0  0  0  0  0  0  0  0  0  0  0
   -3.3320   -4.8240  -24.6120 H   0  0  0  0  0  0  0  0  0  0  0  0
   -2.1740   -6.4380  -26.0400 H   0  0  0  0  0  0  0  0  0  0  0  0
   -3.3120   -8.5300  -26.7470 H   0  0  0  0  0  0  0  0  0  0  0  0
   -5.6290   -8.9540  -26.0190 H   0  0  0  0  0  0  0  0  0  0  0  0
   -6.7330   -7.4800  -24.3690 H   0  0  0  0  0  0  0  0  0  0  0  0
   -5.0840   -4.3360  -23.2530 H   0  0  0  0  0  0  0  0  0  0  0  0
   -7.7050   -5.4160  -23.6820 H   0  0  0  0  0  0  0  0  0  0  0  0
   -7.0390   -6.1120  -22.2130 H   0  0  0  0  0  0  0  0  0  0  0  0
   -8.2500   -4.2820  -21.4990 H   0  0  0  0  0  0  0  0  0  0  0  0
   -5.3060   -3.4970  -21.5420 H   0  0  0  0  0  0  0  0  0  0  0  0
   -6.3110   -3.9900  -20.1880 H   0  0  0  0  0  0  0  0  0  0  0  0
   -9.4240   -2.8230  -23.1730 C   0  0  0  0  0  0  0  0  0  0  0  0
  -10.3650   -2.6010  -22.1490 C   0  0  0  0  0  0  0  0  0  0  0  0
  -11.6930   -2.9490  -22.3580 C   0  0  0  0  0  0  0  0  0  0  0  0
  -12.8670   -2.8960  -21.0760 Cl  0  0  0  0  0  0  0  0  0  0  0  0
  -12.1460   -3.4030  -23.5940 C   0  0  0  0  0  0  0  0  0  0  0  0
  -11.2420   -3.5200  -24.6330 C   0  0  0  0  0  0  0  0  0  0  0  0
   -9.8890   -3.2620  -24.4170 C   0  0  0  0  0  0  0  0  0  0  0  0
   -8.9400   -3.6070  -25.5180 C   0  0  0  0  0  0  0  0  0  0  0  0
   -9.3130   -4.1790  -26.5310 O   0  0  0  0  0  0  0  0  0  0  0  0
  -11.5530   -3.8410  -25.6240 H   0  0  0  0  0  0  0  0  0  0  0  0
  -13.1880   -3.6970  -23.7080 H   0  0  0  0  0  0  0  0  0  0  0  0
  -10.0670   -2.1630  -21.2000 H   0  0  0  0  0  0  0  0  0  0  0  0
   -7.4660   -1.3560  -24.4530 H   0  0  0  0  0  0  0  0  0  0  0  0
   -6.1210   -2.4470  -24.1150 H   0  0  0  0  0  0  0  0  0  0  0  0
   -5.6750   -3.7570  -25.9190 H   0  0  0  0  0  0  0  0  0  0  0  0
   -6.9960   -4.6700  -26.6920 H   0  0  0  0  0  0  0  0  0  0  0  0
   -5.6390   -1.2580  -26.5810 H   0  0  0  0  0  0  0  0  0  0  0  0
   -7.2650   -0.4250  -28.7840 H   0  0  0  0  0  0  0  0  0  0  0  0
   -5.7740   -1.1010  -29.4350 H   0  0  0  0  0  0  0  0  0  0  0  0
   -5.7020    0.3060  -28.3340 H   0  0  0  0  0  0  0  0  0  0  0  0
  1  2  1  0  0  0  0
  1 66  1  0  0  0  0
  1 67  1  0  0  0  0
  1 68  1  0  0  0  0
  2  3  1  0  0  0  0
  2 65  1  0  0  0  0
  3  4  2  0  0  0  0
  3  5  1  0  0  0  0
  5  6  1  0  0  0  0
  5 63  1  0  0  0  0
  5 64  1  0  0  0  0
  6  7  1  0  0  0  0
  6 56  1  0  0  0  0
  7  8  1  0  0  0  0
  7 61  1  0  0  0  0
  7 62  1  0  0  0  0
  8  9  1  1  0  0  0
  8 29  1  0  0  0  0
  8 49  1  0  0  0  0
  9 10  2  0  0  0  0
  9 11  1  0  0  0  0
 11 12  1  0  0  0  0
 11 28  1  0  0  0  0
 12 13  2  0  0  0  0
 12 21  1  0  0  0  0
 13 14  1  0  0  0  0
 13 27  1  0  0  0  0
 14 15  2  0  0  0  0
 15 16  1  0  0  0  0
 15 26  1  0  0  0  0
 16 17  2  0  0  0  0
 16 21  1  0  0  0  0
 17 18  1  0  0  0  0
 17 25  1  0  0  0  0
 18 19  2  0  0  0  0
 18 24  1  0  0  0  0
 19 20  1  0  0  0  0
 19 23  1  0  0  0  0
 20 21  2  0  0  0  0
 20 22  1  0  0  0  0
 28 29  1  0  0  0  0
 28 47  1  0  0  0  0
 28 48  1  0  0  0  0
 29 30  1  0  0  0  0
 29 46  1  1  0  0  0
 30 31  1  0  0  0  0
 30 44  1  0  0  0  0
 30 45  1  0  0  0  0
 31 32  1  0  0  0  0
 31 43  1  0  0  0  0
 32 33  2  0  0  0  0
 32 37  1  0  0  0  0
 33 34  1  0  0  0  0
 33 42  1  0  0  0  0
 34 35  2  0  0  0  0
 34 41  1  0  0  0  0
 35 36  1  0  0  0  0
 35 40  1  0  0  0  0
 36 37  2  0  0  0  0
 36 39  1  0  0  0  0
 37 38  1  0  0  0  0
 49 50  2  0  0  0  0
 49 55  1  0  0  0  0
 50 51  1  0  0  0  0
 50 60  1  0  0  0  0
 51 52  1  0  0  0  0
 51 53  2  0  0  0  0
 53 54  1  0  0  0  0
 53 59  1  0  0  0  0
 54 55  2  0  0  0  0
 54 58  1  0  0  0  0
 55 56  1  0  0  0  0
 56 57  2  0  0  0  0
M  END
>  <MODEL>
       1

$$$$
