best_conformers_76.pdb
 OpenBabel01292518153D

 66 71  0  0  1  0  0  0  0  0999 V2000
   -6.9010   -4.6740  -23.4090 C   0  0  0  0  0  0  0  0  0  0  0  0
   -7.4930   -3.7540  -22.3330 C   0  0  1  0  0  0  0  0  0  0  0  0
   -6.3780   -3.2140  -21.4180 C   0  0  0  0  0  0  0  0  0  0  0  0
   -6.9140   -1.9490  -20.9490 N   0  0  0  0  0  0  0  0  0  0  0  0
   -6.2480   -1.1520  -19.9790 C   0  0  0  0  0  0  0  0  0  0  0  0
   -6.5900   -1.2750  -18.6580 C   0  0  0  0  0  0  0  0  0  0  0  0
   -6.0580   -0.5310  -17.6560 N   0  0  0  0  0  0  0  0  0  0  0  0
   -5.1450    0.3530  -17.9870 C   0  0  0  0  0  0  0  0  0  0  0  0
   -4.6760    0.5580  -19.3180 C   0  0  0  0  0  0  0  0  0  0  0  0
   -3.6840    1.5300  -19.6280 C   0  0  0  0  0  0  0  0  0  0  0  0
   -3.2310    1.6800  -20.9100 C   0  0  0  0  0  0  0  0  0  0  0  0
   -3.7410    0.8670  -21.9480 C   0  0  0  0  0  0  0  0  0  0  0  0
   -4.7110   -0.0700  -21.6770 C   0  0  0  0  0  0  0  0  0  0  0  0
   -5.2220   -0.2330  -20.3540 C   0  0  0  0  0  0  0  0  0  0  0  0
   -5.1000   -0.6840  -22.4840 H   0  0  0  0  0  0  0  0  0  0  0  0
   -3.3850    1.0050  -22.9660 H   0  0  0  0  0  0  0  0  0  0  0  0
   -2.4800    2.4310  -21.1420 H   0  0  0  0  0  0  0  0  0  0  0  0
   -3.3020    2.1500  -18.8220 H   0  0  0  0  0  0  0  0  0  0  0  0
   -4.7180    0.9550  -17.1840 H   0  0  0  0  0  0  0  0  0  0  0  0
   -7.3560   -1.9880  -18.3580 H   0  0  0  0  0  0  0  0  0  0  0  0
   -7.8090   -1.3950  -21.8320 C   0  0  0  0  0  0  0  0  0  0  0  0
   -8.1410   -0.2210  -21.8590 O   0  0  0  0  0  0  0  0  0  0  0  0
   -8.2550   -2.4850  -22.8350 C   0  0  1  0  0  0  0  0  0  0  0  0
   -7.7300   -2.0740  -24.2390 C   0  0  0  0  0  0  0  0  0  0  0  0
   -8.4490   -0.9640  -24.8240 N   0  0  0  0  0  0  0  0  0  0  0  0
   -7.7260   -0.0110  -25.6510 C   0  0  0  0  0  0  0  0  0  0  0  0
   -6.9500    1.0120  -24.8190 C   0  0  0  0  0  0  0  0  0  0  0  0
   -7.8200    1.7920  -23.9110 N   0  3  0  0  0  0  0  0  0  0  0  0
   -7.0280    2.6070  -22.9330 C   0  0  0  0  0  0  0  0  0  0  0  0
   -7.9860    3.3560  -22.0320 C   0  0  0  0  0  0  0  0  0  0  0  0
   -8.7630    4.2720  -22.7740 O   0  0  0  0  0  0  0  0  0  0  0  0
   -9.5460    3.5980  -23.7310 C   0  0  0  0  0  0  0  0  0  0  0  0
   -8.7310    2.7210  -24.6800 C   0  0  0  0  0  0  0  0  0  0  0  0
   -8.1290    3.3230  -25.3770 H   0  0  0  0  0  0  0  0  0  0  0  0
   -9.4330    2.1300  -25.2650 H   0  0  0  0  0  0  0  0  0  0  0  0
  -10.2950    2.9670  -23.2220 H   0  0  0  0  0  0  0  0  0  0  0  0
  -10.0800    4.3690  -24.2940 H   0  0  0  0  0  0  0  0  0  0  0  0
   -8.6220    2.6130  -21.5210 H   0  0  0  0  0  0  0  0  0  0  0  0
   -7.4680    3.9450  -21.2750 H   0  0  0  0  0  0  0  0  0  0  0  0
   -6.3920    1.9510  -22.3380 H   0  0  0  0  0  0  0  0  0  0  0  0
   -6.3970    3.3170  -23.4780 H   0  0  0  0  0  0  0  0  0  0  0  0
   -8.3430    1.0990  -23.3400 H   0  0  0  0  0  0  0  0  0  0  0  0
   -6.1920    0.5180  -24.1960 H   0  0  0  0  0  0  0  0  0  0  0  0
   -6.4140    1.7010  -25.4820 H   0  0  0  0  0  0  0  0  0  0  0  0
   -7.0140   -0.5490  -26.2860 H   0  0  0  0  0  0  0  0  0  0  0  0
   -8.4620    0.4770  -26.2960 H   0  0  0  0  0  0  0  0  0  0  0  0
   -9.7940   -0.8650  -24.7160 C   0  0  0  0  0  0  0  0  0  0  0  0
  -10.4470    0.0550  -25.2020 O   0  0  0  0  0  0  0  0  0  0  0  0
  -10.4750   -1.8880  -23.8740 C   0  0  0  0  0  0  0  0  0  0  0  0
  -11.8590   -1.9540  -23.9950 C   0  0  0  0  0  0  0  0  0  0  0  0
  -12.6030   -2.6210  -23.0510 C   0  0  0  0  0  0  0  0  0  0  0  0
  -11.9430   -3.1130  -21.9230 C   0  0  0  0  0  0  0  0  0  0  0  0
  -12.9970   -3.6290  -20.6280 Cl  0  0  0  0  0  0  0  0  0  0  0  0
  -10.5530   -3.1550  -21.8460 C   0  0  0  0  0  0  0  0  0  0  0  0
   -9.7820   -2.5810  -22.8760 C   0  0  0  0  0  0  0  0  0  0  0  0
  -10.0700   -3.6070  -20.9840 H   0  0  0  0  0  0  0  0  0  0  0  0
  -13.6810   -2.7250  -23.1380 H   0  0  0  0  0  0  0  0  0  0  0  0
  -12.3310   -1.4220  -24.8130 H   0  0  0  0  0  0  0  0  0  0  0  0
   -7.7980   -2.9440  -24.9000 H   0  0  0  0  0  0  0  0  0  0  0  0
   -6.6780   -1.7840  -24.1460 H   0  0  0  0  0  0  0  0  0  0  0  0
   -5.4420   -3.0780  -21.9940 H   0  0  0  0  0  0  0  0  0  0  0  0
   -6.1440   -3.8780  -20.5800 H   0  0  0  0  0  0  0  0  0  0  0  0
   -8.1940   -4.3310  -21.7240 H   0  0  0  0  0  0  0  0  0  0  0  0
   -7.6620   -5.0540  -24.1010 H   0  0  0  0  0  0  0  0  0  0  0  0
   -6.3980   -5.5350  -22.9570 H   0  0  0  0  0  0  0  0  0  0  0  0
   -6.1450   -4.1380  -24.0000 H   0  0  0  0  0  0  0  0  0  0  0  0
  1  2  1  0  0  0  0
  1 64  1  0  0  0  0
  1 65  1  0  0  0  0
  1 66  1  0  0  0  0
  2  3  1  0  0  0  0
  2 23  1  0  0  0  0
  2 63  1  1  0  0  0
  3  4  1  0  0  0  0
  3 61  1  0  0  0  0
  3 62  1  0  0  0  0
  4  5  1  0  0  0  0
  4 21  1  0  0  0  0
  5  6  2  0  0  0  0
  5 14  1  0  0  0  0
  6  7  1  0  0  0  0
  6 20  1  0  0  0  0
  7  8  2  0  0  0  0
  8  9  1  0  0  0  0
  8 19  1  0  0  0  0
  9 10  2  0  0  0  0
  9 14  1  0  0  0  0
 10 11  1  0  0  0  0
 10 18  1  0  0  0  0
 11 12  2  0  0  0  0
 11 17  1  0  0  0  0
 12 13  1  0  0  0  0
 12 16  1  0  0  0  0
 13 14  2  0  0  0  0
 13 15  1  0  0  0  0
 21 22  2  0  0  0  0
 23 21  1  1  0  0  0
 23 24  1  0  0  0  0
 23 55  1  0  0  0  0
 24 25  1  0  0  0  0
 24 59  1  0  0  0  0
 24 60  1  0  0  0  0
 25 26  1  0  0  0  0
 25 47  1  0  0  0  0
 26 27  1  0  0  0  0
 26 45  1  0  0  0  0
 26 46  1  0  0  0  0
 27 28  1  0  0  0  0
 27 43  1  0  0  0  0
 27 44  1  0  0  0  0
 28 29  1  0  0  0  0
 28 33  1  0  0  0  0
 28 42  1  0  0  0  0
 29 30  1  0  0  0  0
 29 40  1  0  0  0  0
 29 41  1  0  0  0  0
 30 31  1  0  0  0  0
 30 38  1  0  0  0  0
 30 39  1  0  0  0  0
 31 32  1  0  0  0  0
 32 33  1  0  0  0  0
 32 36  1  0  0  0  0
 32 37  1  0  0  0  0
 33 34  1  0  0  0  0
 33 35  1  0  0  0  0
 47 48  2  0  0  0  0
 47 49  1  0  0  0  0
 49 50  2  0  0  0  0
 49 55  1  0  0  0  0
 50 51  1  0  0  0  0
 50 58  1  0  0  0  0
 51 52  2  0  0  0  0
 51 57  1  0  0  0  0
 52 53  1  0  0  0  0
 52 54  1  0  0  0  0
 54 55  2  0  0  0  0
 54 56  1  0  0  0  0
M  CHG  1  28   1
M  END
>  <MODEL>
       1

$$$$
best_conformers_76.pdb
 OpenBabel01292518153D

 66 71  0  0  1  0  0  0  0  0999 V2000
   -6.9640   -4.8130  -23.3330 C   0  0  0  0  0  0  0  0  0  0  0  0
   -7.5160   -3.8300  -22.2920 C   0  0  1  0  0  0  0  0  0  0  0  0
   -6.4190   -3.3340  -21.3200 C   0  0  0  0  0  0  0  0  0  0  0  0
   -6.8360   -1.9910  -20.9730 N   0  0  0  0  0  0  0  0  0  0  0  0
   -6.1850   -1.1830  -19.9990 C   0  0  0  0  0  0  0  0  0  0  0  0
   -6.5360   -1.2870  -18.6770 C   0  0  0  0  0  0  0  0  0  0  0  0
   -6.0150   -0.5310  -17.6790 N   0  0  0  0  0  0  0  0  0  0  0  0
   -5.1030    0.3560  -18.0110 C   0  0  0  0  0  0  0  0  0  0  0  0
   -4.6260    0.5560  -19.3410 C   0  0  0  0  0  0  0  0  0  0  0  0
   -3.6330    1.5270  -19.6510 C   0  0  0  0  0  0  0  0  0  0  0  0
   -3.1880    1.6800  -20.9380 C   0  0  0  0  0  0  0  0  0  0  0  0
   -3.7010    0.8660  -21.9700 C   0  0  0  0  0  0  0  0  0  0  0  0
   -4.6580   -0.0840  -21.6930 C   0  0  0  0  0  0  0  0  0  0  0  0
   -5.1680   -0.2470  -20.3710 C   0  0  0  0  0  0  0  0  0  0  0  0
   -5.0230   -0.7270  -22.4870 H   0  0  0  0  0  0  0  0  0  0  0  0
   -3.3450    1.0000  -22.9880 H   0  0  0  0  0  0  0  0  0  0  0  0
   -2.4410    2.4350  -21.1680 H   0  0  0  0  0  0  0  0  0  0  0  0
   -3.2470    2.1460  -18.8470 H   0  0  0  0  0  0  0  0  0  0  0  0
   -4.6990    0.9710  -17.2080 H   0  0  0  0  0  0  0  0  0  0  0  0
   -7.2920   -2.0080  -18.3730 H   0  0  0  0  0  0  0  0  0  0  0  0
   -7.7990   -1.4690  -21.8030 C   0  0  0  0  0  0  0  0  0  0  0  0
   -8.2280   -0.3310  -21.7260 O   0  0  0  0  0  0  0  0  0  0  0  0
   -8.2210   -2.5460  -22.8360 C   0  0  1  0  0  0  0  0  0  0  0  0
   -7.6730   -2.1440  -24.2350 C   0  0  0  0  0  0  0  0  0  0  0  0
   -8.3450   -0.9850  -24.7870 N   0  0  0  0  0  0  0  0  0  0  0  0
   -7.5650   -0.0240  -25.5460 C   0  0  0  0  0  0  0  0  0  0  0  0
   -6.9090    1.0430  -24.6750 C   0  0  0  0  0  0  0  0  0  0  0  0
   -7.9150    1.9560  -24.0220 N   0  3  0  0  0  0  0  0  0  0  0  0
   -7.3610    2.6280  -22.7760 C   0  0  0  0  0  0  0  0  0  0  0  0
   -6.4060    3.7640  -23.1220 C   0  0  0  0  0  0  0  0  0  0  0  0
   -7.0420    4.7340  -23.9280 O   0  0  0  0  0  0  0  0  0  0  0  0
   -7.4590    4.1810  -25.1600 C   0  0  0  0  0  0  0  0  0  0  0  0
   -8.4540    3.0380  -24.9550 C   0  0  0  0  0  0  0  0  0  0  0  0
   -9.3620    3.4410  -24.5000 H   0  0  0  0  0  0  0  0  0  0  0  0
   -8.7230    2.5770  -25.9080 H   0  0  0  0  0  0  0  0  0  0  0  0
   -7.9350    4.9930  -25.7140 H   0  0  0  0  0  0  0  0  0  0  0  0
   -6.5880    3.8380  -25.7400 H   0  0  0  0  0  0  0  0  0  0  0  0
   -6.0820    4.2780  -22.2120 H   0  0  0  0  0  0  0  0  0  0  0  0
   -5.5110    3.3640  -23.6300 H   0  0  0  0  0  0  0  0  0  0  0  0
   -6.8680    1.8590  -22.1750 H   0  0  0  0  0  0  0  0  0  0  0  0
   -8.2130    3.0230  -22.2180 H   0  0  0  0  0  0  0  0  0  0  0  0
   -8.7100    1.3700  -23.7140 H   0  0  0  0  0  0  0  0  0  0  0  0
   -6.2210    1.6340  -25.2860 H   0  0  0  0  0  0  0  0  0  0  0  0
   -6.3220    0.5700  -23.8780 H   0  0  0  0  0  0  0  0  0  0  0  0
   -8.2390    0.4320  -26.2710 H   0  0  0  0  0  0  0  0  0  0  0  0
   -6.7790   -0.5560  -26.0910 H   0  0  0  0  0  0  0  0  0  0  0  0
   -9.6890   -0.8090  -24.6650 C   0  0  0  0  0  0  0  0  0  0  0  0
  -10.2640    0.1760  -25.1290 O   0  0  0  0  0  0  0  0  0  0  0  0
  -10.4260   -1.8290  -23.8400 C   0  0  0  0  0  0  0  0  0  0  0  0
  -11.8160   -1.8840  -23.9380 C   0  0  0  0  0  0  0  0  0  0  0  0
  -12.5410   -2.5630  -22.9860 C   0  0  0  0  0  0  0  0  0  0  0  0
  -11.8860   -3.1310  -21.8970 C   0  0  0  0  0  0  0  0  0  0  0  0
  -12.9460   -3.6100  -20.5930 Cl  0  0  0  0  0  0  0  0  0  0  0  0
  -10.5000   -3.2130  -21.8620 C   0  0  0  0  0  0  0  0  0  0  0  0
   -9.7480   -2.6060  -22.8900 C   0  0  0  0  0  0  0  0  0  0  0  0
  -10.0050   -3.6880  -21.0220 H   0  0  0  0  0  0  0  0  0  0  0  0
  -13.6220   -2.5870  -23.0050 H   0  0  0  0  0  0  0  0  0  0  0  0
  -12.3110   -1.3040  -24.7080 H   0  0  0  0  0  0  0  0  0  0  0  0
   -6.6060   -1.9070  -24.1450 H   0  0  0  0  0  0  0  0  0  0  0  0
   -7.7750   -3.0060  -24.9100 H   0  0  0  0  0  0  0  0  0  0  0  0
   -6.3390   -3.9570  -20.4210 H   0  0  0  0  0  0  0  0  0  0  0  0
   -5.4320   -3.3350  -21.8120 H   0  0  0  0  0  0  0  0  0  0  0  0
   -8.2770   -4.3560  -21.7120 H   0  0  0  0  0  0  0  0  0  0  0  0
   -6.5550   -5.7040  -22.8420 H   0  0  0  0  0  0  0  0  0  0  0  0
   -6.1530   -4.3640  -23.9200 H   0  0  0  0  0  0  0  0  0  0  0  0
   -7.7400   -5.1450  -24.0330 H   0  0  0  0  0  0  0  0  0  0  0  0
  1  2  1  0  0  0  0
  1 64  1  0  0  0  0
  1 65  1  0  0  0  0
  1 66  1  0  0  0  0
  2  3  1  0  0  0  0
  2 23  1  0  0  0  0
  2 63  1  1  0  0  0
  3  4  1  0  0  0  0
  3 61  1  0  0  0  0
  3 62  1  0  0  0  0
  4  5  1  0  0  0  0
  4 21  1  0  0  0  0
  5  6  2  0  0  0  0
  5 14  1  0  0  0  0
  6  7  1  0  0  0  0
  6 20  1  0  0  0  0
  7  8  2  0  0  0  0
  8  9  1  0  0  0  0
  8 19  1  0  0  0  0
  9 10  2  0  0  0  0
  9 14  1  0  0  0  0
 10 11  1  0  0  0  0
 10 18  1  0  0  0  0
 11 12  2  0  0  0  0
 11 17  1  0  0  0  0
 12 13  1  0  0  0  0
 12 16  1  0  0  0  0
 13 14  2  0  0  0  0
 13 15  1  0  0  0  0
 21 22  2  0  0  0  0
 23 21  1  1  0  0  0
 23 24  1  0  0  0  0
 23 55  1  0  0  0  0
 24 25  1  0  0  0  0
 24 59  1  0  0  0  0
 24 60  1  0  0  0  0
 25 26  1  0  0  0  0
 25 47  1  0  0  0  0
 26 27  1  0  0  0  0
 26 45  1  0  0  0  0
 26 46  1  0  0  0  0
 27 28  1  0  0  0  0
 27 43  1  0  0  0  0
 27 44  1  0  0  0  0
 28 29  1  0  0  0  0
 28 33  1  0  0  0  0
 28 42  1  0  0  0  0
 29 30  1  0  0  0  0
 29 40  1  0  0  0  0
 29 41  1  0  0  0  0
 30 31  1  0  0  0  0
 30 38  1  0  0  0  0
 30 39  1  0  0  0  0
 31 32  1  0  0  0  0
 32 33  1  0  0  0  0
 32 36  1  0  0  0  0
 32 37  1  0  0  0  0
 33 34  1  0  0  0  0
 33 35  1  0  0  0  0
 47 48  2  0  0  0  0
 47 49  1  0  0  0  0
 49 50  2  0  0  0  0
 49 55  1  0  0  0  0
 50 51  1  0  0  0  0
 50 58  1  0  0  0  0
 51 52  2  0  0  0  0
 51 57  1  0  0  0  0
 52 53  1  0  0  0  0
 52 54  1  0  0  0  0
 54 55  2  0  0  0  0
 54 56  1  0  0  0  0
M  CHG  1  28   1
M  END
>  <MODEL>
       2

$$$$
