best_conformers_75.pdb
 OpenBabel01292518153D

 66 71  0  0  1  0  0  0  0  0999 V2000
   -8.7850   -1.2550  -29.2770 C   0  0  0  0  0  0  0  0  0  0  0  0
   -8.7170   -0.6490  -27.9630 N   0  0  0  0  0  0  0  0  0  0  0  0
   -7.7630   -1.0330  -27.0840 C   0  0  0  0  0  0  0  0  0  0  0  0
   -6.9470   -1.9090  -27.3290 O   0  0  0  0  0  0  0  0  0  0  0  0
   -7.8050   -0.3330  -25.7230 C   0  0  0  0  0  0  0  0  0  0  0  0
   -8.5910   -1.1050  -24.7880 N   0  0  0  0  0  0  0  0  0  0  0  0
   -8.0620   -2.3470  -24.2970 C   0  0  0  0  0  0  0  0  0  0  0  0
   -8.3850   -2.5410  -22.8000 C   0  0  2  0  0  0  0  0  0  0  0  0
   -7.8290   -1.3370  -21.9820 C   0  0  0  0  0  0  0  0  0  0  0  0
   -8.1330   -0.1700  -22.0990 O   0  0  0  0  0  0  0  0  0  0  0  0
   -6.9160   -1.7980  -21.0520 N   0  0  0  0  0  0  0  0  0  0  0  0
   -6.2530   -0.9930  -20.0860 C   0  0  0  0  0  0  0  0  0  0  0  0
   -6.5950   -1.1470  -18.7640 C   0  0  0  0  0  0  0  0  0  0  0  0
   -6.0650   -0.4490  -17.7300 N   0  0  0  0  0  0  0  0  0  0  0  0
   -5.1270    0.4200  -18.0210 C   0  0  0  0  0  0  0  0  0  0  0  0
   -4.6330    0.6450  -19.3340 C   0  0  0  0  0  0  0  0  0  0  0  0
   -3.6000    1.5890  -19.5610 C   0  0  0  0  0  0  0  0  0  0  0  0
   -3.0660    1.7440  -20.8090 C   0  0  0  0  0  0  0  0  0  0  0  0
   -3.5440    0.9570  -21.8810 C   0  0  0  0  0  0  0  0  0  0  0  0
   -4.5710    0.0600  -21.6930 C   0  0  0  0  0  0  0  0  0  0  0  0
   -5.1680   -0.1050  -20.4100 C   0  0  0  0  0  0  0  0  0  0  0  0
   -4.9270   -0.5310  -22.5320 H   0  0  0  0  0  0  0  0  0  0  0  0
   -3.0930    1.0690  -22.8630 H   0  0  0  0  0  0  0  0  0  0  0  0
   -2.2730    2.4670  -20.9820 H   0  0  0  0  0  0  0  0  0  0  0  0
   -3.2500    2.1760  -18.7160 H   0  0  0  0  0  0  0  0  0  0  0  0
   -4.6890    0.9880  -17.1990 H   0  0  0  0  0  0  0  0  0  0  0  0
   -7.3650   -1.8650  -18.4840 H   0  0  0  0  0  0  0  0  0  0  0  0
   -6.6620   -3.2120  -21.1000 C   0  0  0  0  0  0  0  0  0  0  0  0
   -7.5620   -3.7440  -22.2420 C   0  0  2  0  0  0  0  0  0  0  0  0
   -6.5480   -4.3890  -23.2390 C   0  0  0  0  0  0  0  0  0  0  0  0
   -5.9810   -5.5910  -22.6740 N   0  0  0  0  0  0  0  0  0  0  0  0
   -6.6270   -6.7820  -22.8440 C   0  0  0  0  0  0  0  0  0  0  0  0
   -7.9420   -6.8320  -23.3490 C   0  0  0  0  0  0  0  0  0  0  0  0
   -8.5930   -7.9710  -23.4640 N   0  0  0  0  0  0  0  0  0  0  0  0
   -7.9510   -9.0700  -23.0840 C   0  0  0  0  0  0  0  0  0  0  0  0
   -6.6450   -9.0260  -22.6250 C   0  0  0  0  0  0  0  0  0  0  0  0
   -5.9680   -7.8890  -22.5020 N   0  0  0  0  0  0  0  0  0  0  0  0
   -6.1380   -9.9310  -22.3220 H   0  0  0  0  0  0  0  0  0  0  0  0
   -8.5350   -9.9870  -23.0820 H   0  0  0  0  0  0  0  0  0  0  0  0
   -8.4670   -5.9320  -23.6600 H   0  0  0  0  0  0  0  0  0  0  0  0
   -4.9800   -5.7010  -22.6060 H   0  0  0  0  0  0  0  0  0  0  0  0
   -6.9770   -4.6080  -24.2270 H   0  0  0  0  0  0  0  0  0  0  0  0
   -5.7200   -3.6950  -23.4170 H   0  0  0  0  0  0  0  0  0  0  0  0
   -8.2240   -4.5430  -21.8940 H   0  0  0  0  0  0  0  0  0  0  0  0
   -5.6000   -3.3990  -21.3350 H   0  0  0  0  0  0  0  0  0  0  0  0
   -6.8400   -3.6770  -20.1300 H   0  0  0  0  0  0  0  0  0  0  0  0
   -9.9370   -2.5740  -22.7710 C   0  0  0  0  0  0  0  0  0  0  0  0
  -10.7150   -3.2770  -21.8340 C   0  0  0  0  0  0  0  0  0  0  0  0
  -12.1000   -3.0960  -21.8090 C   0  0  0  0  0  0  0  0  0  0  0  0
  -13.1140   -3.7550  -20.5460 Cl  0  0  0  0  0  0  0  0  0  0  0  0
  -12.7650   -2.3160  -22.7500 C   0  0  0  0  0  0  0  0  0  0  0  0
  -12.0150   -1.6230  -23.6720 C   0  0  0  0  0  0  0  0  0  0  0  0
  -10.6290   -1.7280  -23.6680 C   0  0  0  0  0  0  0  0  0  0  0  0
   -9.9000   -0.8080  -24.6000 C   0  0  0  0  0  0  0  0  0  0  0  0
  -10.4470    0.1410  -25.1470 O   0  0  0  0  0  0  0  0  0  0  0  0
  -12.4750   -0.9480  -24.3850 H   0  0  0  0  0  0  0  0  0  0  0  0
  -13.8450   -2.2150  -22.7070 H   0  0  0  0  0  0  0  0  0  0  0  0
  -10.2550   -3.9480  -21.1150 H   0  0  0  0  0  0  0  0  0  0  0  0
   -8.5210   -3.1790  -24.8500 H   0  0  0  0  0  0  0  0  0  0  0  0
   -6.9920   -2.3420  -24.4850 H   0  0  0  0  0  0  0  0  0  0  0  0
   -6.7730   -0.2740  -25.3510 H   0  0  0  0  0  0  0  0  0  0  0  0
   -8.2430    0.6660  -25.7830 H   0  0  0  0  0  0  0  0  0  0  0  0
   -9.4600   -0.0440  -27.6450 H   0  0  0  0  0  0  0  0  0  0  0  0
   -7.8970   -1.0030  -29.8640 H   0  0  0  0  0  0  0  0  0  0  0  0
   -9.6700   -0.8890  -29.7990 H   0  0  0  0  0  0  0  0  0  0  0  0
   -8.8370   -2.3430  -29.1950 H   0  0  0  0  0  0  0  0  0  0  0  0
  1  2  1  0  0  0  0
  1 64  1  0  0  0  0
  1 65  1  0  0  0  0
  1 66  1  0  0  0  0
  2  3  1  0  0  0  0
  2 63  1  0  0  0  0
  3  4  2  0  0  0  0
  3  5  1  0  0  0  0
  5  6  1  0  0  0  0
  5 61  1  0  0  0  0
  5 62  1  0  0  0  0
  6  7  1  0  0  0  0
  6 54  1  0  0  0  0
  7  8  1  0  0  0  0
  7 59  1  0  0  0  0
  7 60  1  0  0  0  0
  8  9  1  1  0  0  0
  8 29  1  0  0  0  0
  8 47  1  0  0  0  0
  9 10  2  0  0  0  0
  9 11  1  0  0  0  0
 11 12  1  0  0  0  0
 11 28  1  0  0  0  0
 12 13  2  0  0  0  0
 12 21  1  0  0  0  0
 13 14  1  0  0  0  0
 13 27  1  0  0  0  0
 14 15  2  0  0  0  0
 15 16  1  0  0  0  0
 15 26  1  0  0  0  0
 16 17  2  0  0  0  0
 16 21  1  0  0  0  0
 17 18  1  0  0  0  0
 17 25  1  0  0  0  0
 18 19  2  0  0  0  0
 18 24  1  0  0  0  0
 19 20  1  0  0  0  0
 19 23  1  0  0  0  0
 20 21  2  0  0  0  0
 20 22  1  0  0  0  0
 28 29  1  0  0  0  0
 28 45  1  0  0  0  0
 28 46  1  0  0  0  0
 29 30  1  0  0  0  0
 29 44  1  1  0  0  0
 30 31  1  0  0  0  0
 30 42  1  0  0  0  0
 30 43  1  0  0  0  0
 31 32  1  0  0  0  0
 31 41  1  0  0  0  0
 32 33  2  0  0  0  0
 32 37  1  0  0  0  0
 33 34  1  0  0  0  0
 33 40  1  0  0  0  0
 34 35  2  0  0  0  0
 35 36  1  0  0  0  0
 35 39  1  0  0  0  0
 36 37  2  0  0  0  0
 36 38  1  0  0  0  0
 47 48  2  0  0  0  0
 47 53  1  0  0  0  0
 48 49  1  0  0  0  0
 48 58  1  0  0  0  0
 49 50  1  0  0  0  0
 49 51  2  0  0  0  0
 51 52  1  0  0  0  0
 51 57  1  0  0  0  0
 52 53  2  0  0  0  0
 52 56  1  0  0  0  0
 53 54  1  0  0  0  0
 54 55  2  0  0  0  0
M  END
>  <MODEL>
       1

$$$$
