best_conformers_7.pdb
 OpenBabel01292518153D

 44 47  0  0  0  0  0  0  0  0999 V2000
   -6.5220   -6.1310  -26.7700 C   0  0  0  0  0  0  0  0  0  0  0  0
   -6.6750   -7.3280  -25.8390 C   0  0  0  0  0  0  0  0  0  0  0  0
   -7.4870   -6.9130  -24.2970 S   0  0  0  0  0  0  0  0  0  0  0  0
   -7.4530   -8.0790  -23.4310 O   0  0  0  0  0  0  0  0  0  0  0  0
   -8.7590   -6.2980  -24.6620 O   0  0  0  0  0  0  0  0  0  0  0  0
   -6.5060   -5.7690  -23.5360 N   0  0  0  0  0  0  0  0  0  0  0  0
   -6.7890   -4.3360  -23.7990 C   0  0  0  0  0  0  0  0  0  0  0  0
   -7.0030   -4.0810  -22.2870 C   0  0  0  0  0  0  0  0  0  0  0  0
   -6.7630   -5.5950  -22.0680 C   0  0  0  0  0  0  0  0  0  0  0  0
   -5.8730   -5.8100  -21.4770 H   0  0  0  0  0  0  0  0  0  0  0  0
   -7.6160   -6.1640  -21.6780 H   0  0  0  0  0  0  0  0  0  0  0  0
   -5.9920   -3.1740  -21.5940 C   0  0  0  0  0  0  0  0  0  0  0  0
   -4.7920   -3.2930  -21.5630 O   0  0  0  0  0  0  0  0  0  0  0  0
   -6.7140   -2.1760  -20.9360 N   0  0  0  0  0  0  0  0  0  0  0  0
   -6.1500   -1.2440  -20.0080 C   0  0  0  0  0  0  0  0  0  0  0  0
   -6.5380   -1.3020  -18.6940 C   0  0  0  0  0  0  0  0  0  0  0  0
   -6.0300   -0.5290  -17.7010 N   0  0  0  0  0  0  0  0  0  0  0  0
   -5.1100    0.3460  -18.0290 C   0  0  0  0  0  0  0  0  0  0  0  0
   -4.6250    0.5360  -19.3500 C   0  0  0  0  0  0  0  0  0  0  0  0
   -3.6280    1.5070  -19.6430 C   0  0  0  0  0  0  0  0  0  0  0  0
   -3.1860    1.6830  -20.9240 C   0  0  0  0  0  0  0  0  0  0  0  0
   -3.7300    0.8980  -21.9650 C   0  0  0  0  0  0  0  0  0  0  0  0
   -4.6940   -0.0470  -21.7080 C   0  0  0  0  0  0  0  0  0  0  0  0
   -5.1630   -0.2690  -20.3850 C   0  0  0  0  0  0  0  0  0  0  0  0
   -5.0990   -0.6410  -22.5210 H   0  0  0  0  0  0  0  0  0  0  0  0
   -3.3840    1.0470  -22.9820 H   0  0  0  0  0  0  0  0  0  0  0  0
   -2.4310    2.4320  -21.1530 H   0  0  0  0  0  0  0  0  0  0  0  0
   -3.2370    2.1140  -18.8300 H   0  0  0  0  0  0  0  0  0  0  0  0
   -4.7090    0.9600  -17.2230 H   0  0  0  0  0  0  0  0  0  0  0  0
   -7.2950   -2.0160  -18.3790 H   0  0  0  0  0  0  0  0  0  0  0  0
   -8.0960   -2.3860  -21.0960 C   0  0  0  0  0  0  0  0  0  0  0  0
   -8.9890   -1.7030  -20.6550 O   0  0  0  0  0  0  0  0  0  0  0  0
   -8.2470   -3.4990  -21.8650 N   0  0  0  0  0  0  0  0  0  0  0  0
   -9.5510   -4.0530  -22.1420 C   0  0  0  0  0  0  0  0  0  0  0  0
  -10.1490   -3.3770  -22.7630 H   0  0  0  0  0  0  0  0  0  0  0  0
  -10.0820   -4.2060  -21.1970 H   0  0  0  0  0  0  0  0  0  0  0  0
   -9.3940   -4.9930  -22.6760 H   0  0  0  0  0  0  0  0  0  0  0  0
   -5.9040   -3.8380  -24.1950 H   0  0  0  0  0  0  0  0  0  0  0  0
   -7.6640   -4.1560  -24.4360 H   0  0  0  0  0  0  0  0  0  0  0  0
   -7.3320   -8.0940  -26.2760 H   0  0  0  0  0  0  0  0  0  0  0  0
   -5.7240   -7.8040  -25.5820 H   0  0  0  0  0  0  0  0  0  0  0  0
   -5.8430   -5.3810  -26.3500 H   0  0  0  0  0  0  0  0  0  0  0  0
   -7.4920   -5.6610  -26.9620 H   0  0  0  0  0  0  0  0  0  0  0  0
   -6.1060   -6.4630  -27.7260 H   0  0  0  0  0  0  0  0  0  0  0  0
  1  2  1  0  0  0  0
  1 42  1  0  0  0  0
  1 43  1  0  0  0  0
  1 44  1  0  0  0  0
  2  3  1  0  0  0  0
  2 40  1  0  0  0  0
  2 41  1  0  0  0  0
  3  4  2  0  0  0  0
  3  5  2  0  0  0  0
  3  6  1  0  0  0  0
  6  7  1  0  0  0  0
  6  9  1  0  0  0  0
  7  8  1  0  0  0  0
  7 38  1  0  0  0  0
  7 39  1  0  0  0  0
  8  9  1  0  0  0  0
  8 12  1  0  0  0  0
  8 33  1  0  0  0  0
  9 10  1  0  0  0  0
  9 11  1  0  0  0  0
 12 13  2  0  0  0  0
 12 14  1  0  0  0  0
 14 15  1  0  0  0  0
 14 31  1  0  0  0  0
 15 16  2  0  0  0  0
 15 24  1  0  0  0  0
 16 17  1  0  0  0  0
 16 30  1  0  0  0  0
 17 18  2  0  0  0  0
 18 19  1  0  0  0  0
 18 29  1  0  0  0  0
 19 20  2  0  0  0  0
 19 24  1  0  0  0  0
 20 21  1  0  0  0  0
 20 28  1  0  0  0  0
 21 22  2  0  0  0  0
 21 27  1  0  0  0  0
 22 23  1  0  0  0  0
 22 26  1  0  0  0  0
 23 24  2  0  0  0  0
 23 25  1  0  0  0  0
 31 32  2  0  0  0  0
 31 33  1  0  0  0  0
 33 34  1  0  0  0  0
 34 35  1  0  0  0  0
 34 36  1  0  0  0  0
 34 37  1  0  0  0  0
M  END
>  <MODEL>
       1

$$$$
best_conformers_7.pdb
 OpenBabel01292518153D

 44 47  0  0  0  0  0  0  0  0999 V2000
   -6.5400   -6.1540  -26.7550 C   0  0  0  0  0  0  0  0  0  0  0  0
   -6.6860   -7.3460  -25.8190 C   0  0  0  0  0  0  0  0  0  0  0  0
   -7.4930   -6.9280  -24.2750 S   0  0  0  0  0  0  0  0  0  0  0  0
   -8.7660   -6.3150  -24.6380 O   0  0  0  0  0  0  0  0  0  0  0  0
   -7.4550   -8.0920  -23.4070 O   0  0  0  0  0  0  0  0  0  0  0  0
   -6.5100   -5.7790  -23.5210 N   0  0  0  0  0  0  0  0  0  0  0  0
   -6.7940   -4.3470  -23.7890 C   0  0  0  0  0  0  0  0  0  0  0  0
   -7.0050   -4.0850  -22.2780 C   0  0  0  0  0  0  0  0  0  0  0  0
   -6.7640   -5.5990  -22.0530 C   0  0  0  0  0  0  0  0  0  0  0  0
   -5.8720   -5.8110  -21.4640 H   0  0  0  0  0  0  0  0  0  0  0  0
   -7.6150   -6.1670  -21.6590 H   0  0  0  0  0  0  0  0  0  0  0  0
   -5.9920   -3.1760  -21.5910 C   0  0  0  0  0  0  0  0  0  0  0  0
   -4.7930   -3.2950  -21.5620 O   0  0  0  0  0  0  0  0  0  0  0  0
   -6.7140   -2.1760  -20.9350 N   0  0  0  0  0  0  0  0  0  0  0  0
   -6.1500   -1.2440  -20.0070 C   0  0  0  0  0  0  0  0  0  0  0  0
   -6.5380   -1.3010  -18.6930 C   0  0  0  0  0  0  0  0  0  0  0  0
   -6.0300   -0.5290  -17.7000 N   0  0  0  0  0  0  0  0  0  0  0  0
   -5.1100    0.3460  -18.0290 C   0  0  0  0  0  0  0  0  0  0  0  0
   -4.6240    0.5360  -19.3500 C   0  0  0  0  0  0  0  0  0  0  0  0
   -3.6280    1.5070  -19.6430 C   0  0  0  0  0  0  0  0  0  0  0  0
   -3.1860    1.6830  -20.9240 C   0  0  0  0  0  0  0  0  0  0  0  0
   -3.7290    0.8970  -21.9650 C   0  0  0  0  0  0  0  0  0  0  0  0
   -4.6930   -0.0470  -21.7080 C   0  0  0  0  0  0  0  0  0  0  0  0
   -5.1630   -0.2690  -20.3840 C   0  0  0  0  0  0  0  0  0  0  0  0
   -5.0980   -0.6420  -22.5210 H   0  0  0  0  0  0  0  0  0  0  0  0
   -3.3830    1.0460  -22.9820 H   0  0  0  0  0  0  0  0  0  0  0  0
   -2.4310    2.4310  -21.1530 H   0  0  0  0  0  0  0  0  0  0  0  0
   -3.2370    2.1140  -18.8300 H   0  0  0  0  0  0  0  0  0  0  0  0
   -4.7080    0.9600  -17.2230 H   0  0  0  0  0  0  0  0  0  0  0  0
   -7.2940   -2.0160  -18.3790 H   0  0  0  0  0  0  0  0  0  0  0  0
   -8.0950   -2.3860  -21.0930 C   0  0  0  0  0  0  0  0  0  0  0  0
   -8.9890   -1.7020  -20.6530 O   0  0  0  0  0  0  0  0  0  0  0  0
   -8.2480   -3.5010  -21.8570 N   0  0  0  0  0  0  0  0  0  0  0  0
   -9.5510   -4.0580  -22.1300 C   0  0  0  0  0  0  0  0  0  0  0  0
   -9.3910   -4.9990  -22.6610 H   0  0  0  0  0  0  0  0  0  0  0  0
  -10.1520   -3.3850  -22.7510 H   0  0  0  0  0  0  0  0  0  0  0  0
  -10.0790   -4.2110  -21.1820 H   0  0  0  0  0  0  0  0  0  0  0  0
   -5.9110   -3.8520  -24.1900 H   0  0  0  0  0  0  0  0  0  0  0  0
   -7.6710   -4.1700  -24.4250 H   0  0  0  0  0  0  0  0  0  0  0  0
   -7.3430   -8.1150  -26.2500 H   0  0  0  0  0  0  0  0  0  0  0  0
   -5.7330   -7.8190  -25.5620 H   0  0  0  0  0  0  0  0  0  0  0  0
   -7.5110   -5.6870  -26.9460 H   0  0  0  0  0  0  0  0  0  0  0  0
   -6.1260   -6.4890  -27.7120 H   0  0  0  0  0  0  0  0  0  0  0  0
   -5.8600   -5.4000  -26.3420 H   0  0  0  0  0  0  0  0  0  0  0  0
  1  2  1  0  0  0  0
  1 42  1  0  0  0  0
  1 43  1  0  0  0  0
  1 44  1  0  0  0  0
  2  3  1  0  0  0  0
  2 40  1  0  0  0  0
  2 41  1  0  0  0  0
  3  4  2  0  0  0  0
  3  5  2  0  0  0  0
  3  6  1  0  0  0  0
  6  7  1  0  0  0  0
  6  9  1  0  0  0  0
  7  8  1  0  0  0  0
  7 38  1  0  0  0  0
  7 39  1  0  0  0  0
  8  9  1  0  0  0  0
  8 12  1  0  0  0  0
  8 33  1  0  0  0  0
  9 10  1  0  0  0  0
  9 11  1  0  0  0  0
 12 13  2  0  0  0  0
 12 14  1  0  0  0  0
 14 15  1  0  0  0  0
 14 31  1  0  0  0  0
 15 16  2  0  0  0  0
 15 24  1  0  0  0  0
 16 17  1  0  0  0  0
 16 30  1  0  0  0  0
 17 18  2  0  0  0  0
 18 19  1  0  0  0  0
 18 29  1  0  0  0  0
 19 20  2  0  0  0  0
 19 24  1  0  0  0  0
 20 21  1  0  0  0  0
 20 28  1  0  0  0  0
 21 22  2  0  0  0  0
 21 27  1  0  0  0  0
 22 23  1  0  0  0  0
 22 26  1  0  0  0  0
 23 24  2  0  0  0  0
 23 25  1  0  0  0  0
 31 32  2  0  0  0  0
 31 33  1  0  0  0  0
 33 34  1  0  0  0  0
 34 35  1  0  0  0  0
 34 36  1  0  0  0  0
 34 37  1  0  0  0  0
M  END
>  <MODEL>
       2

$$$$
best_conformers_7.pdb
 OpenBabel01292518153D

 44 47  0  0  0  0  0  0  0  0999 V2000
  -10.7820   -5.3020  -27.2540 C   0  0  0  0  0  0  0  0  0  0  0  0
  -10.1620   -4.0830  -26.5820 C   0  0  0  0  0  0  0  0  0  0  0  0
  -10.4550   -4.2280  -24.8270 S   0  0  0  0  0  0  0  0  0  0  0  0
  -11.8670   -4.0690  -24.5310 O   0  0  0  0  0  0  0  0  0  0  0  0
   -9.7370   -5.4220  -24.3920 O   0  0  0  0  0  0  0  0  0  0  0  0
   -9.6870   -2.8320  -24.2410 N   0  0  0  0  0  0  0  0  0  0  0  0
   -8.1980   -2.8470  -24.1760 C   0  0  0  0  0  0  0  0  0  0  0  0
   -8.2450   -2.7210  -22.6370 C   0  0  0  0  0  0  0  0  0  0  0  0
   -9.7790   -2.6510  -22.7580 C   0  0  0  0  0  0  0  0  0  0  0  0
  -10.1320   -1.6500  -22.5060 H   0  0  0  0  0  0  0  0  0  0  0  0
  -10.3450   -3.4120  -22.2160 H   0  0  0  0  0  0  0  0  0  0  0  0
   -7.6390   -1.4910  -21.9940 C   0  0  0  0  0  0  0  0  0  0  0  0
   -7.8710   -0.3350  -22.2600 O   0  0  0  0  0  0  0  0  0  0  0  0
   -6.7700   -1.9700  -21.0120 N   0  0  0  0  0  0  0  0  0  0  0  0
   -6.1620   -1.1720  -20.0140 C   0  0  0  0  0  0  0  0  0  0  0  0
   -6.5310   -1.3010  -18.6990 C   0  0  0  0  0  0  0  0  0  0  0  0
   -6.0360   -0.5380  -17.6900 N   0  0  0  0  0  0  0  0  0  0  0  0
   -5.1220    0.3490  -18.0080 C   0  0  0  0  0  0  0  0  0  0  0  0
   -4.6230    0.5380  -19.3290 C   0  0  0  0  0  0  0  0  0  0  0  0
   -3.6240    1.4960  -19.6230 C   0  0  0  0  0  0  0  0  0  0  0  0
   -3.1530    1.6360  -20.8970 C   0  0  0  0  0  0  0  0  0  0  0  0
   -3.6450    0.8280  -21.9430 C   0  0  0  0  0  0  0  0  0  0  0  0
   -4.6160   -0.1060  -21.6920 C   0  0  0  0  0  0  0  0  0  0  0  0
   -5.1390   -0.2500  -20.3740 C   0  0  0  0  0  0  0  0  0  0  0  0
   -4.9930   -0.7320  -22.4980 H   0  0  0  0  0  0  0  0  0  0  0  0
   -3.2620    0.9540  -22.9500 H   0  0  0  0  0  0  0  0  0  0  0  0
   -2.4020    2.3840  -21.1190 H   0  0  0  0  0  0  0  0  0  0  0  0
   -3.2590    2.1130  -18.8120 H   0  0  0  0  0  0  0  0  0  0  0  0
   -4.7130    0.9730  -17.2100 H   0  0  0  0  0  0  0  0  0  0  0  0
   -7.2770   -2.0370  -18.4020 H   0  0  0  0  0  0  0  0  0  0  0  0
   -6.7070   -3.3760  -20.9950 C   0  0  0  0  0  0  0  0  0  0  0  0
   -5.9790   -4.0530  -20.3040 O   0  0  0  0  0  0  0  0  0  0  0  0
   -7.6240   -3.7980  -21.9100 N   0  0  0  0  0  0  0  0  0  0  0  0
   -8.0240   -5.1770  -22.0420 C   0  0  0  0  0  0  0  0  0  0  0  0
   -9.0880   -5.2210  -21.8520 H   0  0  0  0  0  0  0  0  0  0  0  0
   -7.5010   -5.7560  -21.2830 H   0  0  0  0  0  0  0  0  0  0  0  0
   -7.8360   -5.5660  -23.0420 H   0  0  0  0  0  0  0  0  0  0  0  0
   -7.7410   -1.9970  -24.6880 H   0  0  0  0  0  0  0  0  0  0  0  0
   -7.7230   -3.7830  -24.4830 H   0  0  0  0  0  0  0  0  0  0  0  0
   -9.0720   -4.0910  -26.6950 H   0  0  0  0  0  0  0  0  0  0  0  0
  -10.5560   -3.1170  -26.9170 H   0  0  0  0  0  0  0  0  0  0  0  0
  -10.7600   -5.2040  -28.3440 H   0  0  0  0  0  0  0  0  0  0  0  0
  -10.2230   -6.1920  -26.9550 H   0  0  0  0  0  0  0  0  0  0  0  0
  -11.8130   -5.4240  -26.9110 H   0  0  0  0  0  0  0  0  0  0  0  0
  1  2  1  0  0  0  0
  1 42  1  0  0  0  0
  1 43  1  0  0  0  0
  1 44  1  0  0  0  0
  2  3  1  0  0  0  0
  2 40  1  0  0  0  0
  2 41  1  0  0  0  0
  3  4  2  0  0  0  0
  3  5  2  0  0  0  0
  3  6  1  0  0  0  0
  6  7  1  0  0  0  0
  6  9  1  0  0  0  0
  7  8  1  0  0  0  0
  7 38  1  0  0  0  0
  7 39  1  0  0  0  0
  8  9  1  0  0  0  0
  8 12  1  0  0  0  0
  8 33  1  0  0  0  0
  9 10  1  0  0  0  0
  9 11  1  0  0  0  0
 12 13  2  0  0  0  0
 12 14  1  0  0  0  0
 14 15  1  0  0  0  0
 14 31  1  0  0  0  0
 15 16  2  0  0  0  0
 15 24  1  0  0  0  0
 16 17  1  0  0  0  0
 16 30  1  0  0  0  0
 17 18  2  0  0  0  0
 18 19  1  0  0  0  0
 18 29  1  0  0  0  0
 19 20  2  0  0  0  0
 19 24  1  0  0  0  0
 20 21  1  0  0  0  0
 20 28  1  0  0  0  0
 21 22  2  0  0  0  0
 21 27  1  0  0  0  0
 22 23  1  0  0  0  0
 22 26  1  0  0  0  0
 23 24  2  0  0  0  0
 23 25  1  0  0  0  0
 31 32  2  0  0  0  0
 31 33  1  0  0  0  0
 33 34  1  0  0  0  0
 34 35  1  0  0  0  0
 34 36  1  0  0  0  0
 34 37  1  0  0  0  0
M  END
>  <MODEL>
       3

$$$$
best_conformers_7.pdb
 OpenBabel01292518153D

 44 47  0  0  0  0  0  0  0  0999 V2000
  -10.7950   -5.3050  -27.2420 C   0  0  0  0  0  0  0  0  0  0  0  0
  -10.1730   -4.0880  -26.5710 C   0  0  0  0  0  0  0  0  0  0  0  0
  -10.4650   -4.2300  -24.8160 S   0  0  0  0  0  0  0  0  0  0  0  0
   -9.7480   -5.4240  -24.3780 O   0  0  0  0  0  0  0  0  0  0  0  0
  -11.8770   -4.0710  -24.5200 O   0  0  0  0  0  0  0  0  0  0  0  0
   -9.6950   -2.8330  -24.2330 N   0  0  0  0  0  0  0  0  0  0  0  0
   -8.2060   -2.8480  -24.1720 C   0  0  0  0  0  0  0  0  0  0  0  0
   -8.2480   -2.7220  -22.6340 C   0  0  0  0  0  0  0  0  0  0  0  0
   -9.7820   -2.6510  -22.7490 C   0  0  0  0  0  0  0  0  0  0  0  0
  -10.3450   -3.4130  -22.2070 H   0  0  0  0  0  0  0  0  0  0  0  0
  -10.1330   -1.6500  -22.4960 H   0  0  0  0  0  0  0  0  0  0  0  0
   -7.6390   -1.4920  -21.9930 C   0  0  0  0  0  0  0  0  0  0  0  0
   -7.8710   -0.3360  -22.2590 O   0  0  0  0  0  0  0  0  0  0  0  0
   -6.7690   -1.9710  -21.0120 N   0  0  0  0  0  0  0  0  0  0  0  0
   -6.1610   -1.1720  -20.0140 C   0  0  0  0  0  0  0  0  0  0  0  0
   -6.5310   -1.3000  -18.6990 C   0  0  0  0  0  0  0  0  0  0  0  0
   -6.0360   -0.5380  -17.6900 N   0  0  0  0  0  0  0  0  0  0  0  0
   -5.1210    0.3500  -18.0080 C   0  0  0  0  0  0  0  0  0  0  0  0
   -4.6220    0.5390  -19.3290 C   0  0  0  0  0  0  0  0  0  0  0  0
   -3.6230    1.4960  -19.6230 C   0  0  0  0  0  0  0  0  0  0  0  0
   -3.1530    1.6360  -20.8980 C   0  0  0  0  0  0  0  0  0  0  0  0
   -3.6460    0.8280  -21.9430 C   0  0  0  0  0  0  0  0  0  0  0  0
   -4.6160   -0.1060  -21.6910 C   0  0  0  0  0  0  0  0  0  0  0  0
   -5.1390   -0.2500  -20.3730 C   0  0  0  0  0  0  0  0  0  0  0  0
   -4.9930   -0.7320  -22.4970 H   0  0  0  0  0  0  0  0  0  0  0  0
   -3.2630    0.9540  -22.9500 H   0  0  0  0  0  0  0  0  0  0  0  0
   -2.4020    2.3840  -21.1200 H   0  0  0  0  0  0  0  0  0  0  0  0
   -3.2580    2.1130  -18.8120 H   0  0  0  0  0  0  0  0  0  0  0  0
   -4.7120    0.9730  -17.2100 H   0  0  0  0  0  0  0  0  0  0  0  0
   -7.2770   -2.0360  -18.4020 H   0  0  0  0  0  0  0  0  0  0  0  0
   -6.7090   -3.3770  -20.9920 C   0  0  0  0  0  0  0  0  0  0  0  0
   -5.9830   -4.0540  -20.3000 O   0  0  0  0  0  0  0  0  0  0  0  0
   -7.6250   -3.8000  -21.9090 N   0  0  0  0  0  0  0  0  0  0  0  0
   -8.0260   -5.1790  -22.0360 C   0  0  0  0  0  0  0  0  0  0  0  0
   -7.8520   -5.5690  -23.0380 H   0  0  0  0  0  0  0  0  0  0  0  0
   -9.0890   -5.2220  -21.8320 H   0  0  0  0  0  0  0  0  0  0  0  0
   -7.4960   -5.7580  -21.2830 H   0  0  0  0  0  0  0  0  0  0  0  0
   -7.7330   -3.7850  -24.4810 H   0  0  0  0  0  0  0  0  0  0  0  0
   -7.7510   -1.9990  -24.6870 H   0  0  0  0  0  0  0  0  0  0  0  0
   -9.0840   -4.0980  -26.6840 H   0  0  0  0  0  0  0  0  0  0  0  0
  -10.5640   -3.1210  -26.9060 H   0  0  0  0  0  0  0  0  0  0  0  0
  -10.7700   -5.2090  -28.3320 H   0  0  0  0  0  0  0  0  0  0  0  0
  -11.8260   -5.4270  -26.9010 H   0  0  0  0  0  0  0  0  0  0  0  0
  -10.2400   -6.1970  -26.9390 H   0  0  0  0  0  0  0  0  0  0  0  0
  1  2  1  0  0  0  0
  1 42  1  0  0  0  0
  1 43  1  0  0  0  0
  1 44  1  0  0  0  0
  2  3  1  0  0  0  0
  2 40  1  0  0  0  0
  2 41  1  0  0  0  0
  3  4  2  0  0  0  0
  3  5  2  0  0  0  0
  3  6  1  0  0  0  0
  6  7  1  0  0  0  0
  6  9  1  0  0  0  0
  7  8  1  0  0  0  0
  7 38  1  0  0  0  0
  7 39  1  0  0  0  0
  8  9  1  0  0  0  0
  8 12  1  0  0  0  0
  8 33  1  0  0  0  0
  9 10  1  0  0  0  0
  9 11  1  0  0  0  0
 12 13  2  0  0  0  0
 12 14  1  0  0  0  0
 14 15  1  0  0  0  0
 14 31  1  0  0  0  0
 15 16  2  0  0  0  0
 15 24  1  0  0  0  0
 16 17  1  0  0  0  0
 16 30  1  0  0  0  0
 17 18  2  0  0  0  0
 18 19  1  0  0  0  0
 18 29  1  0  0  0  0
 19 20  2  0  0  0  0
 19 24  1  0  0  0  0
 20 21  1  0  0  0  0
 20 28  1  0  0  0  0
 21 22  2  0  0  0  0
 21 27  1  0  0  0  0
 22 23  1  0  0  0  0
 22 26  1  0  0  0  0
 23 24  2  0  0  0  0
 23 25  1  0  0  0  0
 31 32  2  0  0  0  0
 31 33  1  0  0  0  0
 33 34  1  0  0  0  0
 34 35  1  0  0  0  0
 34 36  1  0  0  0  0
 34 37  1  0  0  0  0
M  END
>  <MODEL>
       4

$$$$
best_conformers_7.pdb
 OpenBabel01292518153D

 44 47  0  0  0  0  0  0  0  0999 V2000
  -11.2020   -5.9320  -25.8030 C   0  0  0  0  0  0  0  0  0  0  0  0
  -10.2730   -5.1620  -24.8810 C   0  0  0  0  0  0  0  0  0  0  0  0
  -10.1910   -3.4630  -25.4330 S   0  0  0  0  0  0  0  0  0  0  0  0
   -9.5780   -3.4570  -26.7470 O   0  0  0  0  0  0  0  0  0  0  0  0
  -11.4800   -2.8340  -25.2060 O   0  0  0  0  0  0  0  0  0  0  0  0
   -9.1770   -2.7070  -24.3590 N   0  0  0  0  0  0  0  0  0  0  0  0
   -7.7120   -2.7830  -24.1720 C   0  0  0  0  0  0  0  0  0  0  0  0
   -7.9660   -2.7560  -22.6270 C   0  0  0  0  0  0  0  0  0  0  0  0
   -9.4730   -2.6750  -22.9260 C   0  0  0  0  0  0  0  0  0  0  0  0
   -9.9250   -1.7240  -22.6330 H   0  0  0  0  0  0  0  0  0  0  0  0
  -10.0450   -3.5000  -22.4940 H   0  0  0  0  0  0  0  0  0  0  0  0
   -7.4760   -1.5520  -21.8510 C   0  0  0  0  0  0  0  0  0  0  0  0
   -7.7900   -0.3920  -21.9770 O   0  0  0  0  0  0  0  0  0  0  0  0
   -6.5820   -2.0470  -20.9090 N   0  0  0  0  0  0  0  0  0  0  0  0
   -6.0210   -1.2090  -19.9160 C   0  0  0  0  0  0  0  0  0  0  0  0
   -6.4670   -1.2840  -18.6220 C   0  0  0  0  0  0  0  0  0  0  0  0
   -6.0160   -0.4830  -17.6250 N   0  0  0  0  0  0  0  0  0  0  0  0
   -5.1010    0.4110  -17.9370 C   0  0  0  0  0  0  0  0  0  0  0  0
   -4.5720    0.6020  -19.2520 C   0  0  0  0  0  0  0  0  0  0  0  0
   -3.5860    1.5780  -19.5670 C   0  0  0  0  0  0  0  0  0  0  0  0
   -3.1130    1.6990  -20.8470 C   0  0  0  0  0  0  0  0  0  0  0  0
   -3.5980    0.8650  -21.8760 C   0  0  0  0  0  0  0  0  0  0  0  0
   -4.5480   -0.0820  -21.6000 C   0  0  0  0  0  0  0  0  0  0  0  0
   -5.0540   -0.2290  -20.2790 C   0  0  0  0  0  0  0  0  0  0  0  0
   -4.9280   -0.7270  -22.3850 H   0  0  0  0  0  0  0  0  0  0  0  0
   -3.2210    0.9640  -22.8880 H   0  0  0  0  0  0  0  0  0  0  0  0
   -2.3520    2.4370  -21.0830 H   0  0  0  0  0  0  0  0  0  0  0  0
   -3.2140    2.2140  -18.7720 H   0  0  0  0  0  0  0  0  0  0  0  0
   -4.7270    1.0330  -17.1230 H   0  0  0  0  0  0  0  0  0  0  0  0
   -7.2410   -2.0050  -18.3610 H   0  0  0  0  0  0  0  0  0  0  0  0
   -6.4930   -3.4520  -20.9400 C   0  0  0  0  0  0  0  0  0  0  0  0
   -5.7220   -4.1340  -20.2980 O   0  0  0  0  0  0  0  0  0  0  0  0
   -7.4480   -3.8590  -21.8400 N   0  0  0  0  0  0  0  0  0  0  0  0
   -7.6350   -5.2580  -22.1630 C   0  0  0  0  0  0  0  0  0  0  0  0
   -8.6830   -5.4720  -22.4030 H   0  0  0  0  0  0  0  0  0  0  0  0
   -7.3620   -5.8370  -21.2790 H   0  0  0  0  0  0  0  0  0  0  0  0
   -6.9990   -5.5690  -23.0030 H   0  0  0  0  0  0  0  0  0  0  0  0
   -7.1760   -1.9110  -24.5620 H   0  0  0  0  0  0  0  0  0  0  0  0
   -7.2260   -3.6960  -24.5330 H   0  0  0  0  0  0  0  0  0  0  0  0
   -9.2520   -5.5520  -24.9160 H   0  0  0  0  0  0  0  0  0  0  0  0
  -10.6090   -5.1430  -23.8410 H   0  0  0  0  0  0  0  0  0  0  0  0
  -10.9160   -5.7790  -26.8440 H   0  0  0  0  0  0  0  0  0  0  0  0
  -11.1580   -7.0010  -25.5990 H   0  0  0  0  0  0  0  0  0  0  0  0
  -12.2290   -5.5890  -25.6900 H   0  0  0  0  0  0  0  0  0  0  0  0
  1  2  1  0  0  0  0
  1 42  1  0  0  0  0
  1 43  1  0  0  0  0
  1 44  1  0  0  0  0
  2  3  1  0  0  0  0
  2 40  1  0  0  0  0
  2 41  1  0  0  0  0
  3  4  2  0  0  0  0
  3  5  2  0  0  0  0
  3  6  1  0  0  0  0
  6  7  1  0  0  0  0
  6  9  1  0  0  0  0
  7  8  1  0  0  0  0
  7 38  1  0  0  0  0
  7 39  1  0  0  0  0
  8  9  1  0  0  0  0
  8 12  1  0  0  0  0
  8 33  1  0  0  0  0
  9 10  1  0  0  0  0
  9 11  1  0  0  0  0
 12 13  2  0  0  0  0
 12 14  1  0  0  0  0
 14 15  1  0  0  0  0
 14 31  1  0  0  0  0
 15 16  2  0  0  0  0
 15 24  1  0  0  0  0
 16 17  1  0  0  0  0
 16 30  1  0  0  0  0
 17 18  2  0  0  0  0
 18 19  1  0  0  0  0
 18 29  1  0  0  0  0
 19 20  2  0  0  0  0
 19 24  1  0  0  0  0
 20 21  1  0  0  0  0
 20 28  1  0  0  0  0
 21 22  2  0  0  0  0
 21 27  1  0  0  0  0
 22 23  1  0  0  0  0
 22 26  1  0  0  0  0
 23 24  2  0  0  0  0
 23 25  1  0  0  0  0
 31 32  2  0  0  0  0
 31 33  1  0  0  0  0
 33 34  1  0  0  0  0
 34 35  1  0  0  0  0
 34 36  1  0  0  0  0
 34 37  1  0  0  0  0
M  END
>  <MODEL>
       5

$$$$
best_conformers_7.pdb
 OpenBabel01292518153D

 44 47  0  0  0  0  0  0  0  0999 V2000
  -12.1470   -4.8260  -24.4530 C   0  0  0  0  0  0  0  0  0  0  0  0
  -11.5200   -4.1250  -25.6390 C   0  0  0  0  0  0  0  0  0  0  0  0
   -9.7780   -3.8490  -25.6180 S   0  0  0  0  0  0  0  0  0  0  0  0
   -9.1100   -5.1310  -25.4600 O   0  0  0  0  0  0  0  0  0  0  0  0
   -9.4680   -2.9850  -26.7490 O   0  0  0  0  0  0  0  0  0  0  0  0
   -9.6220   -2.9160  -24.2380 N   0  0  0  0  0  0  0  0  0  0  0  0
   -9.3380   -3.5760  -22.9450 C   0  0  0  0  0  0  0  0  0  0  0  0
   -8.0250   -2.7600  -22.8240 C   0  0  0  0  0  0  0  0  0  0  0  0
   -8.3920   -2.0970  -24.1780 C   0  0  0  0  0  0  0  0  0  0  0  0
   -8.6360   -1.0380  -24.1160 H   0  0  0  0  0  0  0  0  0  0  0  0
   -7.7040   -2.2780  -25.0080 H   0  0  0  0  0  0  0  0  0  0  0  0
   -7.9530   -1.8100  -21.6460 C   0  0  0  0  0  0  0  0  0  0  0  0
   -8.7700   -0.9910  -21.3050 O   0  0  0  0  0  0  0  0  0  0  0  0
   -6.7300   -2.0700  -21.0220 N   0  0  0  0  0  0  0  0  0  0  0  0
   -6.1400   -1.2260  -20.0490 C   0  0  0  0  0  0  0  0  0  0  0  0
   -6.5480   -1.3260  -18.7470 C   0  0  0  0  0  0  0  0  0  0  0  0
   -6.0580   -0.5720  -17.7330 N   0  0  0  0  0  0  0  0  0  0  0  0
   -5.1320    0.3090  -18.0390 C   0  0  0  0  0  0  0  0  0  0  0  0
   -4.6190    0.5120  -19.3560 C   0  0  0  0  0  0  0  0  0  0  0  0
   -3.6300    1.4950  -19.6350 C   0  0  0  0  0  0  0  0  0  0  0  0
   -3.1800    1.6780  -20.9160 C   0  0  0  0  0  0  0  0  0  0  0  0
   -3.7000    0.8980  -21.9760 C   0  0  0  0  0  0  0  0  0  0  0  0
   -4.6590   -0.0540  -21.7330 C   0  0  0  0  0  0  0  0  0  0  0  0
   -5.1350   -0.2740  -20.4060 C   0  0  0  0  0  0  0  0  0  0  0  0
   -5.0720   -0.6290  -22.5560 H   0  0  0  0  0  0  0  0  0  0  0  0
   -3.3470    1.0610  -22.9920 H   0  0  0  0  0  0  0  0  0  0  0  0
   -2.4280    2.4350  -21.1340 H   0  0  0  0  0  0  0  0  0  0  0  0
   -3.2560    2.1040  -18.8160 H   0  0  0  0  0  0  0  0  0  0  0  0
   -4.7410    0.9240  -17.2280 H   0  0  0  0  0  0  0  0  0  0  0  0
   -7.3110   -2.0590  -18.4940 H   0  0  0  0  0  0  0  0  0  0  0  0
   -6.0190   -3.1050  -21.6520 C   0  0  0  0  0  0  0  0  0  0  0  0
   -4.9500   -3.5560  -21.3020 O   0  0  0  0  0  0  0  0  0  0  0  0
   -6.7800   -3.4750  -22.7220 N   0  0  0  0  0  0  0  0  0  0  0  0
   -6.3130   -4.4420  -23.6840 C   0  0  0  0  0  0  0  0  0  0  0  0
   -5.3270   -4.1520  -24.0490 H   0  0  0  0  0  0  0  0  0  0  0  0
   -6.2460   -5.4300  -23.2260 H   0  0  0  0  0  0  0  0  0  0  0  0
   -7.0100   -4.4770  -24.5220 H   0  0  0  0  0  0  0  0  0  0  0  0
  -10.0850   -3.2970  -22.1990 H   0  0  0  0  0  0  0  0  0  0  0  0
   -9.2250   -4.6630  -22.9950 H   0  0  0  0  0  0  0  0  0  0  0  0
  -11.6360   -4.7350  -26.5350 H   0  0  0  0  0  0  0  0  0  0  0  0
  -11.9170   -3.1350  -25.8350 H   0  0  0  0  0  0  0  0  0  0  0  0
  -13.2370   -4.8610  -24.5620 H   0  0  0  0  0  0  0  0  0  0  0  0
  -11.9130   -4.3370  -23.5020 H   0  0  0  0  0  0  0  0  0  0  0  0
  -11.7880   -5.8520  -24.4650 H   0  0  0  0  0  0  0  0  0  0  0  0
  1  2  1  0  0  0  0
  1 42  1  0  0  0  0
  1 43  1  0  0  0  0
  1 44  1  0  0  0  0
  2  3  1  0  0  0  0
  2 40  1  0  0  0  0
  2 41  1  0  0  0  0
  3  4  2  0  0  0  0
  3  5  2  0  0  0  0
  3  6  1  0  0  0  0
  6  7  1  0  0  0  0
  6  9  1  0  0  0  0
  7  8  1  0  0  0  0
  7 38  1  0  0  0  0
  7 39  1  0  0  0  0
  8  9  1  0  0  0  0
  8 12  1  0  0  0  0
  8 33  1  0  0  0  0
  9 10  1  0  0  0  0
  9 11  1  0  0  0  0
 12 13  2  0  0  0  0
 12 14  1  0  0  0  0
 14 15  1  0  0  0  0
 14 31  1  0  0  0  0
 15 16  2  0  0  0  0
 15 24  1  0  0  0  0
 16 17  1  0  0  0  0
 16 30  1  0  0  0  0
 17 18  2  0  0  0  0
 18 19  1  0  0  0  0
 18 29  1  0  0  0  0
 19 20  2  0  0  0  0
 19 24  1  0  0  0  0
 20 21  1  0  0  0  0
 20 28  1  0  0  0  0
 21 22  2  0  0  0  0
 21 27  1  0  0  0  0
 22 23  1  0  0  0  0
 22 26  1  0  0  0  0
 23 24  2  0  0  0  0
 23 25  1  0  0  0  0
 31 32  2  0  0  0  0
 31 33  1  0  0  0  0
 33 34  1  0  0  0  0
 34 35  1  0  0  0  0
 34 36  1  0  0  0  0
 34 37  1  0  0  0  0
M  END
>  <MODEL>
       6

$$$$
best_conformers_7.pdb
 OpenBabel01292518153D

 44 47  0  0  0  0  0  0  0  0999 V2000
   -7.0270   -5.9480  -26.7880 C   0  0  0  0  0  0  0  0  0  0  0  0
   -7.0270   -7.1920  -25.9080 C   0  0  0  0  0  0  0  0  0  0  0  0
   -7.6330   -6.8790  -24.2480 S   0  0  0  0  0  0  0  0  0  0  0  0
   -8.9310   -6.2390  -24.4110 O   0  0  0  0  0  0  0  0  0  0  0  0
   -7.4940   -8.0910  -23.4630 O   0  0  0  0  0  0  0  0  0  0  0  0
   -6.5600   -5.7740  -23.5410 N   0  0  0  0  0  0  0  0  0  0  0  0
   -6.7870   -5.5700  -22.0680 C   0  0  0  0  0  0  0  0  0  0  0  0
   -7.0070   -4.0460  -22.3010 C   0  0  0  0  0  0  0  0  0  0  0  0
   -6.7840   -4.3310  -23.8050 C   0  0  0  0  0  0  0  0  0  0  0  0
   -5.8820   -3.8630  -24.1910 H   0  0  0  0  0  0  0  0  0  0  0  0
   -7.6440   -4.1190  -24.4530 H   0  0  0  0  0  0  0  0  0  0  0  0
   -5.9890   -3.1600  -21.5940 C   0  0  0  0  0  0  0  0  0  0  0  0
   -4.7890   -3.2910  -21.5710 O   0  0  0  0  0  0  0  0  0  0  0  0
   -6.7070   -2.1680  -20.9250 N   0  0  0  0  0  0  0  0  0  0  0  0
   -6.1400   -1.2410  -20.0000 C   0  0  0  0  0  0  0  0  0  0  0  0
   -6.5350   -1.2970  -18.6870 C   0  0  0  0  0  0  0  0  0  0  0  0
   -6.0290   -0.5250  -17.6940 N   0  0  0  0  0  0  0  0  0  0  0  0
   -5.1080    0.3490  -18.0240 C   0  0  0  0  0  0  0  0  0  0  0  0
   -4.6210    0.5390  -19.3480 C   0  0  0  0  0  0  0  0  0  0  0  0
   -3.6260    1.5100  -19.6420 C   0  0  0  0  0  0  0  0  0  0  0  0
   -3.1860    1.6840  -20.9250 C   0  0  0  0  0  0  0  0  0  0  0  0
   -3.7290    0.8990  -21.9650 C   0  0  0  0  0  0  0  0  0  0  0  0
   -4.6930   -0.0450  -21.7070 C   0  0  0  0  0  0  0  0  0  0  0  0
   -5.1570   -0.2650  -20.3810 C   0  0  0  0  0  0  0  0  0  0  0  0
   -5.1010   -0.6400  -22.5180 H   0  0  0  0  0  0  0  0  0  0  0  0
   -3.3850    1.0480  -22.9830 H   0  0  0  0  0  0  0  0  0  0  0  0
   -2.4320    2.4320  -21.1530 H   0  0  0  0  0  0  0  0  0  0  0  0
   -3.2350    2.1160  -18.8290 H   0  0  0  0  0  0  0  0  0  0  0  0
   -4.7060    0.9630  -17.2200 H   0  0  0  0  0  0  0  0  0  0  0  0
   -7.2930   -2.0120  -18.3800 H   0  0  0  0  0  0  0  0  0  0  0  0
   -8.0910   -2.3390  -21.1150 C   0  0  0  0  0  0  0  0  0  0  0  0
   -8.9710   -1.6570  -20.6480 O   0  0  0  0  0  0  0  0  0  0  0  0
   -8.2390   -3.4130  -21.9360 N   0  0  0  0  0  0  0  0  0  0  0  0
   -9.5130   -3.9240  -22.3550 C   0  0  0  0  0  0  0  0  0  0  0  0
  -10.2840   -3.4890  -21.7200 H   0  0  0  0  0  0  0  0  0  0  0  0
   -9.4410   -5.0000  -22.2490 H   0  0  0  0  0  0  0  0  0  0  0  0
   -9.7190   -3.6740  -23.4000 H   0  0  0  0  0  0  0  0  0  0  0  0
   -5.8810   -5.7920  -21.5020 H   0  0  0  0  0  0  0  0  0  0  0  0
   -7.6240   -6.1440  -21.6530 H   0  0  0  0  0  0  0  0  0  0  0  0
   -7.7210   -7.9520  -26.2920 H   0  0  0  0  0  0  0  0  0  0  0  0
   -6.0420   -7.6550  -25.8100 H   0  0  0  0  0  0  0  0  0  0  0  0
   -6.7630   -6.2250  -27.8110 H   0  0  0  0  0  0  0  0  0  0  0  0
   -8.0150   -5.4790  -26.8050 H   0  0  0  0  0  0  0  0  0  0  0  0
   -6.2930   -5.2120  -26.4420 H   0  0  0  0  0  0  0  0  0  0  0  0
  1  2  1  0  0  0  0
  1 42  1  0  0  0  0
  1 43  1  0  0  0  0
  1 44  1  0  0  0  0
  2  3  1  0  0  0  0
  2 40  1  0  0  0  0
  2 41  1  0  0  0  0
  3  4  2  0  0  0  0
  3  5  2  0  0  0  0
  3  6  1  0  0  0  0
  6  7  1  0  0  0  0
  6  9  1  0  0  0  0
  7  8  1  0  0  0  0
  7 38  1  0  0  0  0
  7 39  1  0  0  0  0
  8  9  1  0  0  0  0
  8 12  1  0  0  0  0
  8 33  1  0  0  0  0
  9 10  1  0  0  0  0
  9 11  1  0  0  0  0
 12 13  2  0  0  0  0
 12 14  1  0  0  0  0
 14 15  1  0  0  0  0
 14 31  1  0  0  0  0
 15 16  2  0  0  0  0
 15 24  1  0  0  0  0
 16 17  1  0  0  0  0
 16 30  1  0  0  0  0
 17 18  2  0  0  0  0
 18 19  1  0  0  0  0
 18 29  1  0  0  0  0
 19 20  2  0  0  0  0
 19 24  1  0  0  0  0
 20 21  1  0  0  0  0
 20 28  1  0  0  0  0
 21 22  2  0  0  0  0
 21 27  1  0  0  0  0
 22 23  1  0  0  0  0
 22 26  1  0  0  0  0
 23 24  2  0  0  0  0
 23 25  1  0  0  0  0
 31 32  2  0  0  0  0
 31 33  1  0  0  0  0
 33 34  1  0  0  0  0
 34 35  1  0  0  0  0
 34 36  1  0  0  0  0
 34 37  1  0  0  0  0
M  END
>  <MODEL>
       7

$$$$
best_conformers_7.pdb
 OpenBabel01292518153D

 44 47  0  0  0  0  0  0  0  0999 V2000
  -10.7440   -5.1350  -27.4510 C   0  0  0  0  0  0  0  0  0  0  0  0
  -10.5540   -4.2010  -26.2550 C   0  0  0  0  0  0  0  0  0  0  0  0
   -8.8610   -3.6940  -26.1710 S   0  0  0  0  0  0  0  0  0  0  0  0
   -8.5820   -2.9080  -27.3600 O   0  0  0  0  0  0  0  0  0  0  0  0
   -8.0540   -4.8570  -25.8340 O   0  0  0  0  0  0  0  0  0  0  0  0
   -8.8430   -2.6170  -24.8740 N   0  0  0  0  0  0  0  0  0  0  0  0
   -9.0610   -3.1690  -23.5150 C   0  0  0  0  0  0  0  0  0  0  0  0
   -7.6570   -2.6850  -23.0770 C   0  0  0  0  0  0  0  0  0  0  0  0
   -7.4720   -2.1330  -24.5150 C   0  0  0  0  0  0  0  0  0  0  0  0
   -7.4290   -1.0440  -24.5800 H   0  0  0  0  0  0  0  0  0  0  0  0
   -6.6510   -2.5650  -25.1040 H   0  0  0  0  0  0  0  0  0  0  0  0
   -7.6270   -1.6370  -21.9770 C   0  0  0  0  0  0  0  0  0  0  0  0
   -8.2510   -0.6090  -21.9170 O   0  0  0  0  0  0  0  0  0  0  0  0
   -6.7020   -2.0840  -21.0310 N   0  0  0  0  0  0  0  0  0  0  0  0
   -6.1260   -1.2350  -20.0400 C   0  0  0  0  0  0  0  0  0  0  0  0
   -6.5300   -1.3260  -18.7360 C   0  0  0  0  0  0  0  0  0  0  0  0
   -6.0480   -0.5510  -17.7290 N   0  0  0  0  0  0  0  0  0  0  0  0
   -5.1270    0.3320  -18.0370 C   0  0  0  0  0  0  0  0  0  0  0  0
   -4.6140    0.5340  -19.3510 C   0  0  0  0  0  0  0  0  0  0  0  0
   -3.6160    1.5060  -19.6370 C   0  0  0  0  0  0  0  0  0  0  0  0
   -3.1550    1.6630  -20.9160 C   0  0  0  0  0  0  0  0  0  0  0  0
   -3.6650    0.8590  -21.9590 C   0  0  0  0  0  0  0  0  0  0  0  0
   -4.6240   -0.0860  -21.7050 C   0  0  0  0  0  0  0  0  0  0  0  0
   -5.1260   -0.2700  -20.3890 C   0  0  0  0  0  0  0  0  0  0  0  0
   -5.0090   -0.7040  -22.5090 H   0  0  0  0  0  0  0  0  0  0  0  0
   -3.3050    0.9920  -22.9740 H   0  0  0  0  0  0  0  0  0  0  0  0
   -2.4000    2.4110  -21.1390 H   0  0  0  0  0  0  0  0  0  0  0  0
   -3.2430    2.1200  -18.8220 H   0  0  0  0  0  0  0  0  0  0  0  0
   -4.7370    0.9410  -17.2230 H   0  0  0  0  0  0  0  0  0  0  0  0
   -7.2890   -2.0500  -18.4500 H   0  0  0  0  0  0  0  0  0  0  0  0
   -6.1420   -3.3210  -21.4040 C   0  0  0  0  0  0  0  0  0  0  0  0
   -5.3070   -3.9430  -20.7880 O   0  0  0  0  0  0  0  0  0  0  0  0
   -6.7300   -3.6640  -22.5910 N   0  0  0  0  0  0  0  0  0  0  0  0
   -6.3770   -4.8620  -23.3140 C   0  0  0  0  0  0  0  0  0  0  0  0
   -5.6630   -5.3890  -22.6810 H   0  0  0  0  0  0  0  0  0  0  0  0
   -7.2710   -5.4690  -23.4910 H   0  0  0  0  0  0  0  0  0  0  0  0
   -5.9200   -4.6040  -24.2760 H   0  0  0  0  0  0  0  0  0  0  0  0
   -9.2340   -4.2510  -23.4670 H   0  0  0  0  0  0  0  0  0  0  0  0
   -9.8810   -2.6380  -23.0310 H   0  0  0  0  0  0  0  0  0  0  0  0
  -11.0850   -3.2430  -26.2930 H   0  0  0  0  0  0  0  0  0  0  0  0
  -10.7790   -4.7030  -25.3090 H   0  0  0  0  0  0  0  0  0  0  0  0
  -10.0970   -6.0060  -27.3280 H   0  0  0  0  0  0  0  0  0  0  0  0
  -10.4800   -4.6510  -28.3970 H   0  0  0  0  0  0  0  0  0  0  0  0
  -11.7690   -5.5060  -27.5090 H   0  0  0  0  0  0  0  0  0  0  0  0
  1  2  1  0  0  0  0
  1 42  1  0  0  0  0
  1 43  1  0  0  0  0
  1 44  1  0  0  0  0
  2  3  1  0  0  0  0
  2 40  1  0  0  0  0
  2 41  1  0  0  0  0
  3  4  2  0  0  0  0
  3  5  2  0  0  0  0
  3  6  1  0  0  0  0
  6  7  1  0  0  0  0
  6  9  1  0  0  0  0
  7  8  1  0  0  0  0
  7 38  1  0  0  0  0
  7 39  1  0  0  0  0
  8  9  1  0  0  0  0
  8 12  1  0  0  0  0
  8 33  1  0  0  0  0
  9 10  1  0  0  0  0
  9 11  1  0  0  0  0
 12 13  2  0  0  0  0
 12 14  1  0  0  0  0
 14 15  1  0  0  0  0
 14 31  1  0  0  0  0
 15 16  2  0  0  0  0
 15 24  1  0  0  0  0
 16 17  1  0  0  0  0
 16 30  1  0  0  0  0
 17 18  2  0  0  0  0
 18 19  1  0  0  0  0
 18 29  1  0  0  0  0
 19 20  2  0  0  0  0
 19 24  1  0  0  0  0
 20 21  1  0  0  0  0
 20 28  1  0  0  0  0
 21 22  2  0  0  0  0
 21 27  1  0  0  0  0
 22 23  1  0  0  0  0
 22 26  1  0  0  0  0
 23 24  2  0  0  0  0
 23 25  1  0  0  0  0
 31 32  2  0  0  0  0
 31 33  1  0  0  0  0
 33 34  1  0  0  0  0
 34 35  1  0  0  0  0
 34 36  1  0  0  0  0
 34 37  1  0  0  0  0
M  END
>  <MODEL>
       8

$$$$
best_conformers_7.pdb
 OpenBabel01292518153D

 44 47  0  0  0  0  0  0  0  0999 V2000
  -11.2150   -5.9170  -25.8040 C   0  0  0  0  0  0  0  0  0  0  0  0
  -10.2740   -5.1560  -24.8830 C   0  0  0  0  0  0  0  0  0  0  0  0
  -10.2290   -3.4400  -25.3900 S   0  0  0  0  0  0  0  0  0  0  0  0
  -11.5060   -2.8300  -25.0780 O   0  0  0  0  0  0  0  0  0  0  0  0
   -9.7020   -3.3960  -26.7370 O   0  0  0  0  0  0  0  0  0  0  0  0
   -9.1730   -2.6920  -24.3410 N   0  0  0  0  0  0  0  0  0  0  0  0
   -7.7070   -2.7810  -24.1630 C   0  0  0  0  0  0  0  0  0  0  0  0
   -7.9490   -2.7520  -22.6240 C   0  0  0  0  0  0  0  0  0  0  0  0
   -9.4500   -2.6660  -22.9040 C   0  0  0  0  0  0  0  0  0  0  0  0
   -9.9030   -1.7150  -22.6180 H   0  0  0  0  0  0  0  0  0  0  0  0
  -10.0180   -3.4910  -22.4710 H   0  0  0  0  0  0  0  0  0  0  0  0
   -7.4620   -1.5490  -21.8500 C   0  0  0  0  0  0  0  0  0  0  0  0
   -7.7780   -0.3870  -21.9660 O   0  0  0  0  0  0  0  0  0  0  0  0
   -6.5690   -2.0450  -20.9130 N   0  0  0  0  0  0  0  0  0  0  0  0
   -6.0160   -1.2110  -19.9100 C   0  0  0  0  0  0  0  0  0  0  0  0
   -6.4620   -1.2780  -18.6180 C   0  0  0  0  0  0  0  0  0  0  0  0
   -6.0120   -0.4780  -17.6180 N   0  0  0  0  0  0  0  0  0  0  0  0
   -5.0970    0.4150  -17.9360 C   0  0  0  0  0  0  0  0  0  0  0  0
   -4.5710    0.6060  -19.2510 C   0  0  0  0  0  0  0  0  0  0  0  0
   -3.5830    1.5830  -19.5640 C   0  0  0  0  0  0  0  0  0  0  0  0
   -3.1120    1.7010  -20.8470 C   0  0  0  0  0  0  0  0  0  0  0  0
   -3.6000    0.8650  -21.8750 C   0  0  0  0  0  0  0  0  0  0  0  0
   -4.5490   -0.0800  -21.5960 C   0  0  0  0  0  0  0  0  0  0  0  0
   -5.0540   -0.2290  -20.2750 C   0  0  0  0  0  0  0  0  0  0  0  0
   -4.9290   -0.7260  -22.3780 H   0  0  0  0  0  0  0  0  0  0  0  0
   -3.2200    0.9640  -22.8880 H   0  0  0  0  0  0  0  0  0  0  0  0
   -2.3510    2.4370  -21.0820 H   0  0  0  0  0  0  0  0  0  0  0  0
   -3.2080    2.2200  -18.7680 H   0  0  0  0  0  0  0  0  0  0  0  0
   -4.7250    1.0340  -17.1210 H   0  0  0  0  0  0  0  0  0  0  0  0
   -7.2360   -1.9980  -18.3590 H   0  0  0  0  0  0  0  0  0  0  0  0
   -6.4850   -3.4490  -20.9460 C   0  0  0  0  0  0  0  0  0  0  0  0
   -5.7140   -4.1270  -20.3040 O   0  0  0  0  0  0  0  0  0  0  0  0
   -7.4430   -3.8590  -21.8390 N   0  0  0  0  0  0  0  0  0  0  0  0
   -7.6310   -5.2570  -22.1620 C   0  0  0  0  0  0  0  0  0  0  0  0
   -7.3520   -5.8410  -21.2860 H   0  0  0  0  0  0  0  0  0  0  0  0
   -8.6780   -5.4730  -22.3990 H   0  0  0  0  0  0  0  0  0  0  0  0
   -7.0000   -5.5690  -23.0020 H   0  0  0  0  0  0  0  0  0  0  0  0
   -7.1850   -1.9100  -24.5650 H   0  0  0  0  0  0  0  0  0  0  0  0
   -7.2290   -3.6970  -24.5250 H   0  0  0  0  0  0  0  0  0  0  0  0
   -9.2490   -5.5270  -24.9420 H   0  0  0  0  0  0  0  0  0  0  0  0
  -10.5960   -5.1520  -23.8390 H   0  0  0  0  0  0  0  0  0  0  0  0
  -12.2390   -5.5650  -25.6790 H   0  0  0  0  0  0  0  0  0  0  0  0
  -10.9240   -5.7510  -26.8430 H   0  0  0  0  0  0  0  0  0  0  0  0
  -11.1810   -6.9890  -25.6030 H   0  0  0  0  0  0  0  0  0  0  0  0
  1  2  1  0  0  0  0
  1 42  1  0  0  0  0
  1 43  1  0  0  0  0
  1 44  1  0  0  0  0
  2  3  1  0  0  0  0
  2 40  1  0  0  0  0
  2 41  1  0  0  0  0
  3  4  2  0  0  0  0
  3  5  2  0  0  0  0
  3  6  1  0  0  0  0
  6  7  1  0  0  0  0
  6  9  1  0  0  0  0
  7  8  1  0  0  0  0
  7 38  1  0  0  0  0
  7 39  1  0  0  0  0
  8  9  1  0  0  0  0
  8 12  1  0  0  0  0
  8 33  1  0  0  0  0
  9 10  1  0  0  0  0
  9 11  1  0  0  0  0
 12 13  2  0  0  0  0
 12 14  1  0  0  0  0
 14 15  1  0  0  0  0
 14 31  1  0  0  0  0
 15 16  2  0  0  0  0
 15 24  1  0  0  0  0
 16 17  1  0  0  0  0
 16 30  1  0  0  0  0
 17 18  2  0  0  0  0
 18 19  1  0  0  0  0
 18 29  1  0  0  0  0
 19 20  2  0  0  0  0
 19 24  1  0  0  0  0
 20 21  1  0  0  0  0
 20 28  1  0  0  0  0
 21 22  2  0  0  0  0
 21 27  1  0  0  0  0
 22 23  1  0  0  0  0
 22 26  1  0  0  0  0
 23 24  2  0  0  0  0
 23 25  1  0  0  0  0
 31 32  2  0  0  0  0
 31 33  1  0  0  0  0
 33 34  1  0  0  0  0
 34 35  1  0  0  0  0
 34 36  1  0  0  0  0
 34 37  1  0  0  0  0
M  END
>  <MODEL>
       9

$$$$
best_conformers_7.pdb
 OpenBabel01292518153D

 44 47  0  0  0  0  0  0  0  0999 V2000
   -8.6380   -5.7350  -27.4990 C   0  0  0  0  0  0  0  0  0  0  0  0
   -8.2550   -4.8800  -26.2920 C   0  0  0  0  0  0  0  0  0  0  0  0
   -9.2730   -3.4060  -26.2210 S   0  0  0  0  0  0  0  0  0  0  0  0
   -8.8830   -2.5650  -27.3360 O   0  0  0  0  0  0  0  0  0  0  0  0
  -10.6410   -3.8500  -26.0330 O   0  0  0  0  0  0  0  0  0  0  0  0
   -8.8870   -2.5560  -24.8330 N   0  0  0  0  0  0  0  0  0  0  0  0
   -9.0980   -3.1570  -23.5000 C   0  0  0  0  0  0  0  0  0  0  0  0
   -7.6690   -2.7020  -23.0820 C   0  0  0  0  0  0  0  0  0  0  0  0
   -7.4950   -2.1610  -24.5350 C   0  0  0  0  0  0  0  0  0  0  0  0
   -6.7260   -2.6420  -25.1480 H   0  0  0  0  0  0  0  0  0  0  0  0
   -7.3700   -1.0780  -24.5960 H   0  0  0  0  0  0  0  0  0  0  0  0
   -7.6190   -1.6380  -21.9910 C   0  0  0  0  0  0  0  0  0  0  0  0
   -8.2220   -0.5960  -21.9440 O   0  0  0  0  0  0  0  0  0  0  0  0
   -6.7090   -2.0840  -21.0300 N   0  0  0  0  0  0  0  0  0  0  0  0
   -6.1330   -1.2300  -20.0350 C   0  0  0  0  0  0  0  0  0  0  0  0
   -6.5270   -1.3160  -18.7270 C   0  0  0  0  0  0  0  0  0  0  0  0
   -6.0350   -0.5390  -17.7240 N   0  0  0  0  0  0  0  0  0  0  0  0
   -5.1160    0.3450  -18.0290 C   0  0  0  0  0  0  0  0  0  0  0  0
   -4.6100    0.5420  -19.3440 C   0  0  0  0  0  0  0  0  0  0  0  0
   -3.6120    1.5100  -19.6380 C   0  0  0  0  0  0  0  0  0  0  0  0
   -3.1550    1.6630  -20.9170 C   0  0  0  0  0  0  0  0  0  0  0  0
   -3.6710    0.8570  -21.9560 C   0  0  0  0  0  0  0  0  0  0  0  0
   -4.6310   -0.0840  -21.6950 C   0  0  0  0  0  0  0  0  0  0  0  0
   -5.1310   -0.2640  -20.3790 C   0  0  0  0  0  0  0  0  0  0  0  0
   -5.0220   -0.7050  -22.4930 H   0  0  0  0  0  0  0  0  0  0  0  0
   -3.3130    0.9840  -22.9710 H   0  0  0  0  0  0  0  0  0  0  0  0
   -2.3980    2.4080  -21.1490 H   0  0  0  0  0  0  0  0  0  0  0  0
   -3.2300    2.1260  -18.8290 H   0  0  0  0  0  0  0  0  0  0  0  0
   -4.7200    0.9570  -17.2160 H   0  0  0  0  0  0  0  0  0  0  0  0
   -7.2840   -2.0330  -18.4200 H   0  0  0  0  0  0  0  0  0  0  0  0
   -6.1620   -3.3310  -21.3900 C   0  0  0  0  0  0  0  0  0  0  0  0
   -5.3350   -3.9530  -20.7600 O   0  0  0  0  0  0  0  0  0  0  0  0
   -6.7420   -3.6790  -22.5840 N   0  0  0  0  0  0  0  0  0  0  0  0
   -6.4730   -4.9360  -23.2390 C   0  0  0  0  0  0  0  0  0  0  0  0
   -6.1580   -4.7710  -24.2770 H   0  0  0  0  0  0  0  0  0  0  0  0
   -5.6670   -5.4150  -22.6840 H   0  0  0  0  0  0  0  0  0  0  0  0
   -7.3590   -5.5840  -23.2300 H   0  0  0  0  0  0  0  0  0  0  0  0
   -9.2790   -4.2380  -23.5080 H   0  0  0  0  0  0  0  0  0  0  0  0
   -9.9000   -2.6700  -22.9430 H   0  0  0  0  0  0  0  0  0  0  0  0
   -8.4210   -5.4210  -25.3560 H   0  0  0  0  0  0  0  0  0  0  0  0
   -7.2160   -4.5460  -26.3520 H   0  0  0  0  0  0  0  0  0  0  0  0
   -9.6850   -6.0460  -27.4330 H   0  0  0  0  0  0  0  0  0  0  0  0
   -8.0060   -6.6290  -27.5310 H   0  0  0  0  0  0  0  0  0  0  0  0
   -8.4990   -5.1710  -28.4260 H   0  0  0  0  0  0  0  0  0  0  0  0
  1  2  1  0  0  0  0
  1 42  1  0  0  0  0
  1 43  1  0  0  0  0
  1 44  1  0  0  0  0
  2  3  1  0  0  0  0
  2 40  1  0  0  0  0
  2 41  1  0  0  0  0
  3  4  2  0  0  0  0
  3  5  2  0  0  0  0
  3  6  1  0  0  0  0
  6  7  1  0  0  0  0
  6  9  1  0  0  0  0
  7  8  1  0  0  0  0
  7 38  1  0  0  0  0
  7 39  1  0  0  0  0
  8  9  1  0  0  0  0
  8 12  1  0  0  0  0
  8 33  1  0  0  0  0
  9 10  1  0  0  0  0
  9 11  1  0  0  0  0
 12 13  2  0  0  0  0
 12 14  1  0  0  0  0
 14 15  1  0  0  0  0
 14 31  1  0  0  0  0
 15 16  2  0  0  0  0
 15 24  1  0  0  0  0
 16 17  1  0  0  0  0
 16 30  1  0  0  0  0
 17 18  2  0  0  0  0
 18 19  1  0  0  0  0
 18 29  1  0  0  0  0
 19 20  2  0  0  0  0
 19 24  1  0  0  0  0
 20 21  1  0  0  0  0
 20 28  1  0  0  0  0
 21 22  2  0  0  0  0
 21 27  1  0  0  0  0
 22 23  1  0  0  0  0
 22 26  1  0  0  0  0
 23 24  2  0  0  0  0
 23 25  1  0  0  0  0
 31 32  2  0  0  0  0
 31 33  1  0  0  0  0
 33 34  1  0  0  0  0
 34 35  1  0  0  0  0
 34 36  1  0  0  0  0
 34 37  1  0  0  0  0
M  END
>  <MODEL>
      10

$$$$
best_conformers_7.pdb
 OpenBabel01292518153D

 44 47  0  0  0  0  0  0  0  0999 V2000
   -8.1980   -7.6020  -26.8830 C   0  0  0  0  0  0  0  0  0  0  0  0
   -7.4440   -7.1800  -25.6200 C   0  0  0  0  0  0  0  0  0  0  0  0
   -7.0110   -5.4630  -25.7550 S   0  0  0  0  0  0  0  0  0  0  0  0
   -5.9980   -5.3480  -26.7890 O   0  0  0  0  0  0  0  0  0  0  0  0
   -8.2720   -4.7380  -25.8410 O   0  0  0  0  0  0  0  0  0  0  0  0
   -6.2710   -5.0440  -24.2960 N   0  0  0  0  0  0  0  0  0  0  0  0
   -5.9590   -3.5780  -24.1820 C   0  0  0  0  0  0  0  0  0  0  0  0
   -6.8200   -3.4880  -22.8960 C   0  0  0  0  0  0  0  0  0  0  0  0
   -7.1400   -4.9910  -23.0930 C   0  0  0  0  0  0  0  0  0  0  0  0
   -8.1980   -5.2300  -23.2610 H   0  0  0  0  0  0  0  0  0  0  0  0
   -6.7290   -5.6290  -22.3130 H   0  0  0  0  0  0  0  0  0  0  0  0
   -6.0500   -3.1290  -21.6280 C   0  0  0  0  0  0  0  0  0  0  0  0
   -5.0410   -3.6310  -21.2000 O   0  0  0  0  0  0  0  0  0  0  0  0
   -6.7300   -2.0650  -21.0350 N   0  0  0  0  0  0  0  0  0  0  0  0
   -6.1470   -1.2170  -20.0390 C   0  0  0  0  0  0  0  0  0  0  0  0
   -6.5390   -1.3080  -18.7310 C   0  0  0  0  0  0  0  0  0  0  0  0
   -6.0370   -0.5420  -17.7250 N   0  0  0  0  0  0  0  0  0  0  0  0
   -5.1160    0.3390  -18.0300 C   0  0  0  0  0  0  0  0  0  0  0  0
   -4.6090    0.5390  -19.3450 C   0  0  0  0  0  0  0  0  0  0  0  0
   -3.6150    1.5110  -19.6390 C   0  0  0  0  0  0  0  0  0  0  0  0
   -3.1690    1.6770  -20.9200 C   0  0  0  0  0  0  0  0  0  0  0  0
   -3.7000    0.8860  -21.9630 C   0  0  0  0  0  0  0  0  0  0  0  0
   -4.6620   -0.0540  -21.7040 C   0  0  0  0  0  0  0  0  0  0  0  0
   -5.1390   -0.2570  -20.3830 C   0  0  0  0  0  0  0  0  0  0  0  0
   -5.0800   -0.6460  -22.5100 H   0  0  0  0  0  0  0  0  0  0  0  0
   -3.3540    1.0260  -22.9810 H   0  0  0  0  0  0  0  0  0  0  0  0
   -2.4160    2.4250  -21.1500 H   0  0  0  0  0  0  0  0  0  0  0  0
   -3.2310    2.1220  -18.8270 H   0  0  0  0  0  0  0  0  0  0  0  0
   -4.7210    0.9500  -17.2180 H   0  0  0  0  0  0  0  0  0  0  0  0
   -7.2950   -2.0280  -18.4270 H   0  0  0  0  0  0  0  0  0  0  0  0
   -7.8680   -1.7050  -21.7850 C   0  0  0  0  0  0  0  0  0  0  0  0
   -8.6370   -0.8130  -21.5190 O   0  0  0  0  0  0  0  0  0  0  0  0
   -7.9110   -2.5570  -22.8610 N   0  0  0  0  0  0  0  0  0  0  0  0
   -8.9310   -2.4700  -23.8860 C   0  0  0  0  0  0  0  0  0  0  0  0
   -9.4590   -3.4250  -23.9800 H   0  0  0  0  0  0  0  0  0  0  0  0
   -8.4830   -2.2180  -24.8550 H   0  0  0  0  0  0  0  0  0  0  0  0
   -9.6150   -1.6780  -23.5730 H   0  0  0  0  0  0  0  0  0  0  0  0
   -6.2900   -2.9570  -25.0250 H   0  0  0  0  0  0  0  0  0  0  0  0
   -4.8930   -3.4300  -24.0210 H   0  0  0  0  0  0  0  0  0  0  0  0
   -6.5030   -7.7180  -25.4640 H   0  0  0  0  0  0  0  0  0  0  0  0
   -8.0760   -7.2780  -24.7340 H   0  0  0  0  0  0  0  0  0  0  0  0
   -8.6060   -8.6030  -26.7280 H   0  0  0  0  0  0  0  0  0  0  0  0
   -9.0420   -6.9320  -27.0890 H   0  0  0  0  0  0  0  0  0  0  0  0
   -7.5270   -7.5900  -27.7500 H   0  0  0  0  0  0  0  0  0  0  0  0
  1  2  1  0  0  0  0
  1 42  1  0  0  0  0
  1 43  1  0  0  0  0
  1 44  1  0  0  0  0
  2  3  1  0  0  0  0
  2 40  1  0  0  0  0
  2 41  1  0  0  0  0
  3  4  2  0  0  0  0
  3  5  2  0  0  0  0
  3  6  1  0  0  0  0
  6  7  1  0  0  0  0
  6  9  1  0  0  0  0
  7  8  1  0  0  0  0
  7 38  1  0  0  0  0
  7 39  1  0  0  0  0
  8  9  1  0  0  0  0
  8 12  1  0  0  0  0
  8 33  1  0  0  0  0
  9 10  1  0  0  0  0
  9 11  1  0  0  0  0
 12 13  2  0  0  0  0
 12 14  1  0  0  0  0
 14 15  1  0  0  0  0
 14 31  1  0  0  0  0
 15 16  2  0  0  0  0
 15 24  1  0  0  0  0
 16 17  1  0  0  0  0
 16 30  1  0  0  0  0
 17 18  2  0  0  0  0
 18 19  1  0  0  0  0
 18 29  1  0  0  0  0
 19 20  2  0  0  0  0
 19 24  1  0  0  0  0
 20 21  1  0  0  0  0
 20 28  1  0  0  0  0
 21 22  2  0  0  0  0
 21 27  1  0  0  0  0
 22 23  1  0  0  0  0
 22 26  1  0  0  0  0
 23 24  2  0  0  0  0
 23 25  1  0  0  0  0
 31 32  2  0  0  0  0
 31 33  1  0  0  0  0
 33 34  1  0  0  0  0
 34 35  1  0  0  0  0
 34 36  1  0  0  0  0
 34 37  1  0  0  0  0
M  END
>  <MODEL>
      11

$$$$
best_conformers_7.pdb
 OpenBabel01292518153D

 44 47  0  0  0  0  0  0  0  0999 V2000
   -8.9630   -3.9780  -27.2410 C   0  0  0  0  0  0  0  0  0  0  0  0
  -10.3470   -3.7990  -26.6210 C   0  0  0  0  0  0  0  0  0  0  0  0
  -10.5060   -4.1430  -24.8820 S   0  0  0  0  0  0  0  0  0  0  0  0
  -11.8930   -3.9610  -24.4990 O   0  0  0  0  0  0  0  0  0  0  0  0
   -9.8210   -5.4020  -24.6080 O   0  0  0  0  0  0  0  0  0  0  0  0
   -9.6850   -2.8340  -24.2280 N   0  0  0  0  0  0  0  0  0  0  0  0
   -9.8260   -2.6590  -22.7610 C   0  0  0  0  0  0  0  0  0  0  0  0
   -8.2860   -2.7650  -22.6080 C   0  0  0  0  0  0  0  0  0  0  0  0
   -8.2130   -2.8900  -24.1470 C   0  0  0  0  0  0  0  0  0  0  0  0
   -7.7900   -3.8370  -24.4910 H   0  0  0  0  0  0  0  0  0  0  0  0
   -7.7240   -2.0430  -24.6350 H   0  0  0  0  0  0  0  0  0  0  0  0
   -7.6500   -1.5420  -21.9960 C   0  0  0  0  0  0  0  0  0  0  0  0
   -7.8480   -0.3920  -22.3120 O   0  0  0  0  0  0  0  0  0  0  0  0
   -6.8010   -2.0010  -20.9870 N   0  0  0  0  0  0  0  0  0  0  0  0
   -6.1710   -1.1920  -20.0100 C   0  0  0  0  0  0  0  0  0  0  0  0
   -6.5380   -1.3060  -18.6920 C   0  0  0  0  0  0  0  0  0  0  0  0
   -6.0380   -0.5400  -17.6910 N   0  0  0  0  0  0  0  0  0  0  0  0
   -5.1200    0.3420  -18.0150 C   0  0  0  0  0  0  0  0  0  0  0  0
   -4.6260    0.5220  -19.3380 C   0  0  0  0  0  0  0  0  0  0  0  0
   -3.6260    1.4840  -19.6290 C   0  0  0  0  0  0  0  0  0  0  0  0
   -3.1530    1.6320  -20.9040 C   0  0  0  0  0  0  0  0  0  0  0  0
   -3.6500    0.8210  -21.9520 C   0  0  0  0  0  0  0  0  0  0  0  0
   -4.6210   -0.1160  -21.7010 C   0  0  0  0  0  0  0  0  0  0  0  0
   -5.1480   -0.2720  -20.3820 C   0  0  0  0  0  0  0  0  0  0  0  0
   -4.9990   -0.7330  -22.5140 H   0  0  0  0  0  0  0  0  0  0  0  0
   -3.2700    0.9560  -22.9640 H   0  0  0  0  0  0  0  0  0  0  0  0
   -2.4010    2.3860  -21.1290 H   0  0  0  0  0  0  0  0  0  0  0  0
   -3.2620    2.1070  -18.8170 H   0  0  0  0  0  0  0  0  0  0  0  0
   -4.7110    0.9740  -17.2220 H   0  0  0  0  0  0  0  0  0  0  0  0
   -7.2840   -2.0420  -18.3950 H   0  0  0  0  0  0  0  0  0  0  0  0
   -6.7570   -3.4060  -20.9450 C   0  0  0  0  0  0  0  0  0  0  0  0
   -6.0340   -4.0890  -20.2530 O   0  0  0  0  0  0  0  0  0  0  0  0
   -7.7020   -3.8290  -21.8390 N   0  0  0  0  0  0  0  0  0  0  0  0
   -8.0200   -5.2120  -22.0960 C   0  0  0  0  0  0  0  0  0  0  0  0
   -7.7210   -5.8210  -21.2460 H   0  0  0  0  0  0  0  0  0  0  0  0
   -7.5330   -5.5930  -23.0010 H   0  0  0  0  0  0  0  0  0  0  0  0
   -9.0890   -5.2890  -22.2420 H   0  0  0  0  0  0  0  0  0  0  0  0
  -10.1820   -1.6560  -22.5210 H   0  0  0  0  0  0  0  0  0  0  0  0
  -10.4480   -3.4060  -22.2630 H   0  0  0  0  0  0  0  0  0  0  0  0
  -10.7260   -2.7800  -26.7460 H   0  0  0  0  0  0  0  0  0  0  0  0
  -11.0500   -4.5160  -27.0620 H   0  0  0  0  0  0  0  0  0  0  0  0
   -8.2510   -3.1910  -26.9680 H   0  0  0  0  0  0  0  0  0  0  0  0
   -8.5300   -4.9370  -26.9500 H   0  0  0  0  0  0  0  0  0  0  0  0
   -9.0700   -3.9810  -28.3340 H   0  0  0  0  0  0  0  0  0  0  0  0
  1  2  1  0  0  0  0
  1 42  1  0  0  0  0
  1 43  1  0  0  0  0
  1 44  1  0  0  0  0
  2  3  1  0  0  0  0
  2 40  1  0  0  0  0
  2 41  1  0  0  0  0
  3  4  2  0  0  0  0
  3  5  2  0  0  0  0
  3  6  1  0  0  0  0
  6  7  1  0  0  0  0
  6  9  1  0  0  0  0
  7  8  1  0  0  0  0
  7 38  1  0  0  0  0
  7 39  1  0  0  0  0
  8  9  1  0  0  0  0
  8 12  1  0  0  0  0
  8 33  1  0  0  0  0
  9 10  1  0  0  0  0
  9 11  1  0  0  0  0
 12 13  2  0  0  0  0
 12 14  1  0  0  0  0
 14 15  1  0  0  0  0
 14 31  1  0  0  0  0
 15 16  2  0  0  0  0
 15 24  1  0  0  0  0
 16 17  1  0  0  0  0
 16 30  1  0  0  0  0
 17 18  2  0  0  0  0
 18 19  1  0  0  0  0
 18 29  1  0  0  0  0
 19 20  2  0  0  0  0
 19 24  1  0  0  0  0
 20 21  1  0  0  0  0
 20 28  1  0  0  0  0
 21 22  2  0  0  0  0
 21 27  1  0  0  0  0
 22 23  1  0  0  0  0
 22 26  1  0  0  0  0
 23 24  2  0  0  0  0
 23 25  1  0  0  0  0
 31 32  2  0  0  0  0
 31 33  1  0  0  0  0
 33 34  1  0  0  0  0
 34 35  1  0  0  0  0
 34 36  1  0  0  0  0
 34 37  1  0  0  0  0
M  END
>  <MODEL>
      12

$$$$
best_conformers_7.pdb
 OpenBabel01292518153D

 44 47  0  0  0  0  0  0  0  0999 V2000
   -9.7730   -6.0760  -25.5090 C   0  0  0  0  0  0  0  0  0  0  0  0
  -10.6860   -5.0220  -24.9090 C   0  0  0  0  0  0  0  0  0  0  0  0
  -10.2940   -3.3700  -25.5030 S   0  0  0  0  0  0  0  0  0  0  0  0
   -9.4890   -3.4740  -26.7050 O   0  0  0  0  0  0  0  0  0  0  0  0
  -11.5140   -2.5930  -25.5220 O   0  0  0  0  0  0  0  0  0  0  0  0
   -9.3400   -2.7080  -24.3000 N   0  0  0  0  0  0  0  0  0  0  0  0
   -9.6270   -2.6930  -22.8610 C   0  0  0  0  0  0  0  0  0  0  0  0
   -8.1170   -2.8060  -22.5850 C   0  0  0  0  0  0  0  0  0  0  0  0
   -7.8910   -2.8760  -24.1180 C   0  0  0  0  0  0  0  0  0  0  0  0
   -7.3210   -2.0410  -24.5250 H   0  0  0  0  0  0  0  0  0  0  0  0
   -7.4740   -3.8280  -24.4660 H   0  0  0  0  0  0  0  0  0  0  0  0
   -7.5550   -1.5820  -21.8920 C   0  0  0  0  0  0  0  0  0  0  0  0
   -7.8090   -0.4220  -22.0920 O   0  0  0  0  0  0  0  0  0  0  0  0
   -6.6710   -2.0670  -20.9330 N   0  0  0  0  0  0  0  0  0  0  0  0
   -6.0780   -1.2390  -19.9470 C   0  0  0  0  0  0  0  0  0  0  0  0
   -6.4900   -1.3160  -18.6430 C   0  0  0  0  0  0  0  0  0  0  0  0
   -6.0280   -0.5190  -17.6490 N   0  0  0  0  0  0  0  0  0  0  0  0
   -5.1150    0.3670  -17.9750 C   0  0  0  0  0  0  0  0  0  0  0  0
   -4.6010    0.5460  -19.2910 C   0  0  0  0  0  0  0  0  0  0  0  0
   -3.6140    1.5220  -19.5940 C   0  0  0  0  0  0  0  0  0  0  0  0
   -3.1450    1.6550  -20.8720 C   0  0  0  0  0  0  0  0  0  0  0  0
   -3.6340    0.8280  -21.9080 C   0  0  0  0  0  0  0  0  0  0  0  0
   -4.5870   -0.1220  -21.6400 C   0  0  0  0  0  0  0  0  0  0  0  0
   -5.0950   -0.2800  -20.3190 C   0  0  0  0  0  0  0  0  0  0  0  0
   -4.9700   -0.7560  -22.4340 H   0  0  0  0  0  0  0  0  0  0  0  0
   -3.2560    0.9450  -22.9210 H   0  0  0  0  0  0  0  0  0  0  0  0
   -2.3890    2.4010  -21.1030 H   0  0  0  0  0  0  0  0  0  0  0  0
   -3.2470    2.1530  -18.7890 H   0  0  0  0  0  0  0  0  0  0  0  0
   -4.7320    0.9930  -17.1710 H   0  0  0  0  0  0  0  0  0  0  0  0
   -7.2550   -2.0360  -18.3650 H   0  0  0  0  0  0  0  0  0  0  0  0
   -6.6340   -3.4720  -20.9090 C   0  0  0  0  0  0  0  0  0  0  0  0
   -5.8900   -4.1500  -20.2360 O   0  0  0  0  0  0  0  0  0  0  0  0
   -7.6140   -3.8920  -21.7730 N   0  0  0  0  0  0  0  0  0  0  0  0
   -7.7780   -5.2860  -22.1300 C   0  0  0  0  0  0  0  0  0  0  0  0
   -8.8040   -5.4580  -22.4650 H   0  0  0  0  0  0  0  0  0  0  0  0
   -7.0770   -5.5900  -22.9190 H   0  0  0  0  0  0  0  0  0  0  0  0
   -7.5920   -5.9070  -21.2530 H   0  0  0  0  0  0  0  0  0  0  0  0
  -10.0370   -1.7260  -22.5740 H   0  0  0  0  0  0  0  0  0  0  0  0
  -10.2390   -3.4970  -22.4440 H   0  0  0  0  0  0  0  0  0  0  0  0
  -10.6060   -4.9440  -23.8220 H   0  0  0  0  0  0  0  0  0  0  0  0
  -11.7400   -5.1910  -25.1550 H   0  0  0  0  0  0  0  0  0  0  0  0
   -8.7460   -5.9500  -25.1570 H   0  0  0  0  0  0  0  0  0  0  0  0
  -10.1080   -7.0760  -25.2360 H   0  0  0  0  0  0  0  0  0  0  0  0
   -9.7790   -5.9940  -26.5960 H   0  0  0  0  0  0  0  0  0  0  0  0
  1  2  1  0  0  0  0
  1 42  1  0  0  0  0
  1 43  1  0  0  0  0
  1 44  1  0  0  0  0
  2  3  1  0  0  0  0
  2 40  1  0  0  0  0
  2 41  1  0  0  0  0
  3  4  2  0  0  0  0
  3  5  2  0  0  0  0
  3  6  1  0  0  0  0
  6  7  1  0  0  0  0
  6  9  1  0  0  0  0
  7  8  1  0  0  0  0
  7 38  1  0  0  0  0
  7 39  1  0  0  0  0
  8  9  1  0  0  0  0
  8 12  1  0  0  0  0
  8 33  1  0  0  0  0
  9 10  1  0  0  0  0
  9 11  1  0  0  0  0
 12 13  2  0  0  0  0
 12 14  1  0  0  0  0
 14 15  1  0  0  0  0
 14 31  1  0  0  0  0
 15 16  2  0  0  0  0
 15 24  1  0  0  0  0
 16 17  1  0  0  0  0
 16 30  1  0  0  0  0
 17 18  2  0  0  0  0
 18 19  1  0  0  0  0
 18 29  1  0  0  0  0
 19 20  2  0  0  0  0
 19 24  1  0  0  0  0
 20 21  1  0  0  0  0
 20 28  1  0  0  0  0
 21 22  2  0  0  0  0
 21 27  1  0  0  0  0
 22 23  1  0  0  0  0
 22 26  1  0  0  0  0
 23 24  2  0  0  0  0
 23 25  1  0  0  0  0
 31 32  2  0  0  0  0
 31 33  1  0  0  0  0
 33 34  1  0  0  0  0
 34 35  1  0  0  0  0
 34 36  1  0  0  0  0
 34 37  1  0  0  0  0
M  END
>  <MODEL>
      13

$$$$
best_conformers_7.pdb
 OpenBabel01292518153D

 44 47  0  0  0  0  0  0  0  0999 V2000
   -8.4640   -5.4570  -27.6960 C   0  0  0  0  0  0  0  0  0  0  0  0
   -8.2660   -4.7650  -26.3490 C   0  0  0  0  0  0  0  0  0  0  0  0
   -9.1930   -3.2320  -26.2900 S   0  0  0  0  0  0  0  0  0  0  0  0
  -10.5910   -3.6060  -26.2220 O   0  0  0  0  0  0  0  0  0  0  0  0
   -8.6700   -2.3720  -27.3370 O   0  0  0  0  0  0  0  0  0  0  0  0
   -8.8680   -2.4500  -24.8510 N   0  0  0  0  0  0  0  0  0  0  0  0
   -7.4940   -2.0250  -24.5240 C   0  0  0  0  0  0  0  0  0  0  0  0
   -7.6570   -2.6470  -23.1030 C   0  0  0  0  0  0  0  0  0  0  0  0
   -9.0660   -3.1300  -23.5520 C   0  0  0  0  0  0  0  0  0  0  0  0
   -9.8910   -2.6980  -22.9830 H   0  0  0  0  0  0  0  0  0  0  0  0
   -9.2060   -4.2150  -23.6140 H   0  0  0  0  0  0  0  0  0  0  0  0
   -7.6500   -1.6340  -21.9630 C   0  0  0  0  0  0  0  0  0  0  0  0
   -8.2980   -0.6260  -21.8630 O   0  0  0  0  0  0  0  0  0  0  0  0
   -6.7110   -2.0830  -21.0290 N   0  0  0  0  0  0  0  0  0  0  0  0
   -6.1340   -1.2290  -20.0330 C   0  0  0  0  0  0  0  0  0  0  0  0
   -6.5290   -1.3140  -18.7250 C   0  0  0  0  0  0  0  0  0  0  0  0
   -6.0350   -0.5380  -17.7220 N   0  0  0  0  0  0  0  0  0  0  0  0
   -5.1140    0.3450  -18.0270 C   0  0  0  0  0  0  0  0  0  0  0  0
   -4.6100    0.5420  -19.3430 C   0  0  0  0  0  0  0  0  0  0  0  0
   -3.6120    1.5110  -19.6380 C   0  0  0  0  0  0  0  0  0  0  0  0
   -3.1580    1.6660  -20.9180 C   0  0  0  0  0  0  0  0  0  0  0  0
   -3.6780    0.8610  -21.9570 C   0  0  0  0  0  0  0  0  0  0  0  0
   -4.6370   -0.0800  -21.6950 C   0  0  0  0  0  0  0  0  0  0  0  0
   -5.1320   -0.2630  -20.3770 C   0  0  0  0  0  0  0  0  0  0  0  0
   -5.0300   -0.6970  -22.4950 H   0  0  0  0  0  0  0  0  0  0  0  0
   -3.3220    0.9900  -22.9730 H   0  0  0  0  0  0  0  0  0  0  0  0
   -2.4020    2.4110  -21.1500 H   0  0  0  0  0  0  0  0  0  0  0  0
   -3.2290    2.1260  -18.8290 H   0  0  0  0  0  0  0  0  0  0  0  0
   -4.7190    0.9570  -17.2150 H   0  0  0  0  0  0  0  0  0  0  0  0
   -7.2850   -2.0310  -18.4180 H   0  0  0  0  0  0  0  0  0  0  0  0
   -6.1040   -3.2800  -21.4590 C   0  0  0  0  0  0  0  0  0  0  0  0
   -5.2230   -3.8750  -20.8780 O   0  0  0  0  0  0  0  0  0  0  0  0
   -6.7000   -3.6170  -22.6480 N   0  0  0  0  0  0  0  0  0  0  0  0
   -6.2360   -4.7210  -23.4540 C   0  0  0  0  0  0  0  0  0  0  0  0
   -7.0850   -5.3240  -23.7980 H   0  0  0  0  0  0  0  0  0  0  0  0
   -5.5850   -5.3250  -22.8210 H   0  0  0  0  0  0  0  0  0  0  0  0
   -5.6630   -4.3720  -24.3240 H   0  0  0  0  0  0  0  0  0  0  0  0
   -6.7120   -2.4530  -25.1610 H   0  0  0  0  0  0  0  0  0  0  0  0
   -7.4000   -0.9380  -24.5260 H   0  0  0  0  0  0  0  0  0  0  0  0
   -8.6480   -5.3810  -25.5290 H   0  0  0  0  0  0  0  0  0  0  0  0
   -7.2160   -4.5160  -26.1770 H   0  0  0  0  0  0  0  0  0  0  0  0
   -8.1010   -4.8200  -28.5070 H   0  0  0  0  0  0  0  0  0  0  0  0
   -9.5230   -5.6750  -27.8680 H   0  0  0  0  0  0  0  0  0  0  0  0
   -7.9070   -6.4000  -27.7080 H   0  0  0  0  0  0  0  0  0  0  0  0
  1  2  1  0  0  0  0
  1 42  1  0  0  0  0
  1 43  1  0  0  0  0
  1 44  1  0  0  0  0
  2  3  1  0  0  0  0
  2 40  1  0  0  0  0
  2 41  1  0  0  0  0
  3  4  2  0  0  0  0
  3  5  2  0  0  0  0
  3  6  1  0  0  0  0
  6  7  1  0  0  0  0
  6  9  1  0  0  0  0
  7  8  1  0  0  0  0
  7 38  1  0  0  0  0
  7 39  1  0  0  0  0
  8  9  1  0  0  0  0
  8 12  1  0  0  0  0
  8 33  1  0  0  0  0
  9 10  1  0  0  0  0
  9 11  1  0  0  0  0
 12 13  2  0  0  0  0
 12 14  1  0  0  0  0
 14 15  1  0  0  0  0
 14 31  1  0  0  0  0
 15 16  2  0  0  0  0
 15 24  1  0  0  0  0
 16 17  1  0  0  0  0
 16 30  1  0  0  0  0
 17 18  2  0  0  0  0
 18 19  1  0  0  0  0
 18 29  1  0  0  0  0
 19 20  2  0  0  0  0
 19 24  1  0  0  0  0
 20 21  1  0  0  0  0
 20 28  1  0  0  0  0
 21 22  2  0  0  0  0
 21 27  1  0  0  0  0
 22 23  1  0  0  0  0
 22 26  1  0  0  0  0
 23 24  2  0  0  0  0
 23 25  1  0  0  0  0
 31 32  2  0  0  0  0
 31 33  1  0  0  0  0
 33 34  1  0  0  0  0
 34 35  1  0  0  0  0
 34 36  1  0  0  0  0
 34 37  1  0  0  0  0
M  END
>  <MODEL>
      14

$$$$
best_conformers_7.pdb
 OpenBabel01292518153D

 44 47  0  0  0  0  0  0  0  0999 V2000
   -6.4350   -5.7690  -28.3900 C   0  0  0  0  0  0  0  0  0  0  0  0
   -5.7960   -5.3700  -27.0570 C   0  0  0  0  0  0  0  0  0  0  0  0
   -6.9980   -5.5080  -25.7410 S   0  0  0  0  0  0  0  0  0  0  0  0
   -8.0380   -4.5250  -26.0370 O   0  0  0  0  0  0  0  0  0  0  0  0
   -7.3090   -6.9170  -25.5780 O   0  0  0  0  0  0  0  0  0  0  0  0
   -6.2200   -5.0210  -24.3190 N   0  0  0  0  0  0  0  0  0  0  0  0
   -5.9300   -3.5730  -24.1880 C   0  0  0  0  0  0  0  0  0  0  0  0
   -6.7970   -3.4840  -22.9050 C   0  0  0  0  0  0  0  0  0  0  0  0
   -7.1090   -4.9880  -23.1070 C   0  0  0  0  0  0  0  0  0  0  0  0
   -8.1620   -5.2240  -23.2990 H   0  0  0  0  0  0  0  0  0  0  0  0
   -6.7280   -5.6290  -22.3110 H   0  0  0  0  0  0  0  0  0  0  0  0
   -6.0460   -3.1330  -21.6240 C   0  0  0  0  0  0  0  0  0  0  0  0
   -5.0490   -3.6440  -21.1810 O   0  0  0  0  0  0  0  0  0  0  0  0
   -6.7310   -2.0660  -21.0340 N   0  0  0  0  0  0  0  0  0  0  0  0
   -6.1460   -1.2190  -20.0370 C   0  0  0  0  0  0  0  0  0  0  0  0
   -6.5350   -1.3060  -18.7270 C   0  0  0  0  0  0  0  0  0  0  0  0
   -6.0330   -0.5380  -17.7230 N   0  0  0  0  0  0  0  0  0  0  0  0
   -5.1110    0.3440  -18.0260 C   0  0  0  0  0  0  0  0  0  0  0  0
   -4.6080    0.5410  -19.3420 C   0  0  0  0  0  0  0  0  0  0  0  0
   -3.6140    1.5120  -19.6380 C   0  0  0  0  0  0  0  0  0  0  0  0
   -3.1690    1.6770  -20.9210 C   0  0  0  0  0  0  0  0  0  0  0  0
   -3.7000    0.8830  -21.9620 C   0  0  0  0  0  0  0  0  0  0  0  0
   -4.6630   -0.0560  -21.6990 C   0  0  0  0  0  0  0  0  0  0  0  0
   -5.1390   -0.2570  -20.3790 C   0  0  0  0  0  0  0  0  0  0  0  0
   -5.0790   -0.6510  -22.5040 H   0  0  0  0  0  0  0  0  0  0  0  0
   -3.3540    1.0210  -22.9800 H   0  0  0  0  0  0  0  0  0  0  0  0
   -2.4140    2.4230  -21.1540 H   0  0  0  0  0  0  0  0  0  0  0  0
   -3.2260    2.1250  -18.8300 H   0  0  0  0  0  0  0  0  0  0  0  0
   -4.7150    0.9580  -17.2150 H   0  0  0  0  0  0  0  0  0  0  0  0
   -7.2900   -2.0240  -18.4170 H   0  0  0  0  0  0  0  0  0  0  0  0
   -7.8510   -1.6930  -21.8050 C   0  0  0  0  0  0  0  0  0  0  0  0
   -8.6090   -0.7860  -21.5550 O   0  0  0  0  0  0  0  0  0  0  0  0
   -7.8930   -2.5500  -22.8800 N   0  0  0  0  0  0  0  0  0  0  0  0
   -8.8840   -2.4390  -23.9300 C   0  0  0  0  0  0  0  0  0  0  0  0
   -9.5930   -1.6710  -23.6190 H   0  0  0  0  0  0  0  0  0  0  0  0
   -8.4210   -2.1490  -24.8810 H   0  0  0  0  0  0  0  0  0  0  0  0
   -9.4010   -3.3940  -24.0760 H   0  0  0  0  0  0  0  0  0  0  0  0
   -6.2560   -2.9450  -25.0250 H   0  0  0  0  0  0  0  0  0  0  0  0
   -4.8690   -3.4230  -23.9980 H   0  0  0  0  0  0  0  0  0  0  0  0
   -4.9570   -6.0160  -26.7810 H   0  0  0  0  0  0  0  0  0  0  0  0
   -5.4610   -4.3270  -27.0610 H   0  0  0  0  0  0  0  0  0  0  0  0
   -5.7010   -5.6830  -29.2000 H   0  0  0  0  0  0  0  0  0  0  0  0
   -6.7900   -6.8050  -28.3520 H   0  0  0  0  0  0  0  0  0  0  0  0
   -7.2880   -5.1220  -28.6230 H   0  0  0  0  0  0  0  0  0  0  0  0
  1  2  1  0  0  0  0
  1 42  1  0  0  0  0
  1 43  1  0  0  0  0
  1 44  1  0  0  0  0
  2  3  1  0  0  0  0
  2 40  1  0  0  0  0
  2 41  1  0  0  0  0
  3  4  2  0  0  0  0
  3  5  2  0  0  0  0
  3  6  1  0  0  0  0
  6  7  1  0  0  0  0
  6  9  1  0  0  0  0
  7  8  1  0  0  0  0
  7 38  1  0  0  0  0
  7 39  1  0  0  0  0
  8  9  1  0  0  0  0
  8 12  1  0  0  0  0
  8 33  1  0  0  0  0
  9 10  1  0  0  0  0
  9 11  1  0  0  0  0
 12 13  2  0  0  0  0
 12 14  1  0  0  0  0
 14 15  1  0  0  0  0
 14 31  1  0  0  0  0
 15 16  2  0  0  0  0
 15 24  1  0  0  0  0
 16 17  1  0  0  0  0
 16 30  1  0  0  0  0
 17 18  2  0  0  0  0
 18 19  1  0  0  0  0
 18 29  1  0  0  0  0
 19 20  2  0  0  0  0
 19 24  1  0  0  0  0
 20 21  1  0  0  0  0
 20 28  1  0  0  0  0
 21 22  2  0  0  0  0
 21 27  1  0  0  0  0
 22 23  1  0  0  0  0
 22 26  1  0  0  0  0
 23 24  2  0  0  0  0
 23 25  1  0  0  0  0
 31 32  2  0  0  0  0
 31 33  1  0  0  0  0
 33 34  1  0  0  0  0
 34 35  1  0  0  0  0
 34 36  1  0  0  0  0
 34 37  1  0  0  0  0
M  END
>  <MODEL>
      15

$$$$
best_conformers_7.pdb
 OpenBabel01292518153D

 44 47  0  0  0  0  0  0  0  0999 V2000
   -7.5710   -7.7170  -26.6920 C   0  0  0  0  0  0  0  0  0  0  0  0
   -6.6760   -6.8270  -25.8470 C   0  0  0  0  0  0  0  0  0  0  0  0
   -7.4580   -6.7980  -24.2500 S   0  0  0  0  0  0  0  0  0  0  0  0
   -7.2450   -8.0550  -23.5530 O   0  0  0  0  0  0  0  0  0  0  0  0
   -8.8150   -6.3010  -24.4410 O   0  0  0  0  0  0  0  0  0  0  0  0
   -6.4860   -5.6770  -23.4850 N   0  0  0  0  0  0  0  0  0  0  0  0
   -6.7290   -5.5320  -22.0330 C   0  0  0  0  0  0  0  0  0  0  0  0
   -6.9610   -4.0270  -22.2470 C   0  0  0  0  0  0  0  0  0  0  0  0
   -6.7500   -4.2510  -23.7580 C   0  0  0  0  0  0  0  0  0  0  0  0
   -5.8910   -3.7470  -24.2070 H   0  0  0  0  0  0  0  0  0  0  0  0
   -7.6560   -4.0660  -24.3450 H   0  0  0  0  0  0  0  0  0  0  0  0
   -5.9500   -3.1680  -21.5380 C   0  0  0  0  0  0  0  0  0  0  0  0
   -4.7620   -3.3540  -21.4580 O   0  0  0  0  0  0  0  0  0  0  0  0
   -6.6780   -2.1460  -20.9290 N   0  0  0  0  0  0  0  0  0  0  0  0
   -6.1380   -1.2420  -19.9890 C   0  0  0  0  0  0  0  0  0  0  0  0
   -6.5590   -1.3060  -18.6830 C   0  0  0  0  0  0  0  0  0  0  0  0
   -6.0640   -0.5370  -17.6850 N   0  0  0  0  0  0  0  0  0  0  0  0
   -5.1340    0.3290  -18.0230 C   0  0  0  0  0  0  0  0  0  0  0  0
   -4.6450    0.5120  -19.3480 C   0  0  0  0  0  0  0  0  0  0  0  0
   -3.6570    1.4870  -19.6360 C   0  0  0  0  0  0  0  0  0  0  0  0
   -3.2120    1.6670  -20.9170 C   0  0  0  0  0  0  0  0  0  0  0  0
   -3.7370    0.8900  -21.9730 C   0  0  0  0  0  0  0  0  0  0  0  0
   -4.6950   -0.0640  -21.7250 C   0  0  0  0  0  0  0  0  0  0  0  0
   -5.1600   -0.2850  -20.3890 C   0  0  0  0  0  0  0  0  0  0  0  0
   -5.0920   -0.6470  -22.5530 H   0  0  0  0  0  0  0  0  0  0  0  0
   -3.3790    1.0540  -22.9890 H   0  0  0  0  0  0  0  0  0  0  0  0
   -2.4530    2.4160  -21.1300 H   0  0  0  0  0  0  0  0  0  0  0  0
   -3.2770    2.0840  -18.8120 H   0  0  0  0  0  0  0  0  0  0  0  0
   -4.7120    0.9510  -17.2340 H   0  0  0  0  0  0  0  0  0  0  0  0
   -7.3320   -2.0220  -18.4080 H   0  0  0  0  0  0  0  0  0  0  0  0
   -8.0610   -2.3320  -21.0960 C   0  0  0  0  0  0  0  0  0  0  0  0
   -8.9370   -1.6260  -20.6490 O   0  0  0  0  0  0  0  0  0  0  0  0
   -8.2140   -3.4540  -21.8470 N   0  0  0  0  0  0  0  0  0  0  0  0
   -9.5180   -4.0020  -22.1480 C   0  0  0  0  0  0  0  0  0  0  0  0
  -10.0560   -4.1940  -21.2190 H   0  0  0  0  0  0  0  0  0  0  0  0
   -9.4120   -4.9400  -22.6910 H   0  0  0  0  0  0  0  0  0  0  0  0
  -10.0860   -3.2930  -22.7520 H   0  0  0  0  0  0  0  0  0  0  0  0
   -5.8350   -5.7750  -21.4580 H   0  0  0  0  0  0  0  0  0  0  0  0
   -7.5880   -6.0950  -21.6590 H   0  0  0  0  0  0  0  0  0  0  0  0
   -6.6260   -5.7860  -26.2020 H   0  0  0  0  0  0  0  0  0  0  0  0
   -5.6550   -7.2090  -25.7210 H   0  0  0  0  0  0  0  0  0  0  0  0
   -7.0900   -8.0160  -27.6190 H   0  0  0  0  0  0  0  0  0  0  0  0
   -8.5080   -7.2140  -26.9210 H   0  0  0  0  0  0  0  0  0  0  0  0
   -7.8190   -8.6100  -26.1180 H   0  0  0  0  0  0  0  0  0  0  0  0
  1  2  1  0  0  0  0
  1 42  1  0  0  0  0
  1 43  1  0  0  0  0
  1 44  1  0  0  0  0
  2  3  1  0  0  0  0
  2 40  1  0  0  0  0
  2 41  1  0  0  0  0
  3  4  2  0  0  0  0
  3  5  2  0  0  0  0
  3  6  1  0  0  0  0
  6  7  1  0  0  0  0
  6  9  1  0  0  0  0
  7  8  1  0  0  0  0
  7 38  1  0  0  0  0
  7 39  1  0  0  0  0
  8  9  1  0  0  0  0
  8 12  1  0  0  0  0
  8 33  1  0  0  0  0
  9 10  1  0  0  0  0
  9 11  1  0  0  0  0
 12 13  2  0  0  0  0
 12 14  1  0  0  0  0
 14 15  1  0  0  0  0
 14 31  1  0  0  0  0
 15 16  2  0  0  0  0
 15 24  1  0  0  0  0
 16 17  1  0  0  0  0
 16 30  1  0  0  0  0
 17 18  2  0  0  0  0
 18 19  1  0  0  0  0
 18 29  1  0  0  0  0
 19 20  2  0  0  0  0
 19 24  1  0  0  0  0
 20 21  1  0  0  0  0
 20 28  1  0  0  0  0
 21 22  2  0  0  0  0
 21 27  1  0  0  0  0
 22 23  1  0  0  0  0
 22 26  1  0  0  0  0
 23 24  2  0  0  0  0
 23 25  1  0  0  0  0
 31 32  2  0  0  0  0
 31 33  1  0  0  0  0
 33 34  1  0  0  0  0
 34 35  1  0  0  0  0
 34 36  1  0  0  0  0
 34 37  1  0  0  0  0
M  END
>  <MODEL>
      16

$$$$
best_conformers_7.pdb
 OpenBabel01292518153D

 44 47  0  0  0  0  0  0  0  0999 V2000
   -8.9870   -3.9640  -27.2380 C   0  0  0  0  0  0  0  0  0  0  0  0
  -10.3710   -3.7900  -26.6250 C   0  0  0  0  0  0  0  0  0  0  0  0
  -10.5170   -4.1240  -24.8780 S   0  0  0  0  0  0  0  0  0  0  0  0
   -9.8440   -5.3850  -24.5980 O   0  0  0  0  0  0  0  0  0  0  0  0
  -11.9010   -3.9470  -24.4900 O   0  0  0  0  0  0  0  0  0  0  0  0
   -9.6890   -2.8150  -24.2200 N   0  0  0  0  0  0  0  0  0  0  0  0
   -9.8320   -2.6460  -22.7490 C   0  0  0  0  0  0  0  0  0  0  0  0
   -8.2930   -2.7600  -22.6020 C   0  0  0  0  0  0  0  0  0  0  0  0
   -8.2170   -2.8850  -24.1380 C   0  0  0  0  0  0  0  0  0  0  0  0
   -7.8180   -3.8370  -24.4900 H   0  0  0  0  0  0  0  0  0  0  0  0
   -7.7280   -2.0440  -24.6320 H   0  0  0  0  0  0  0  0  0  0  0  0
   -7.6490   -1.5410  -21.9960 C   0  0  0  0  0  0  0  0  0  0  0  0
   -7.8460   -0.3930  -22.3170 O   0  0  0  0  0  0  0  0  0  0  0  0
   -6.8020   -2.0010  -20.9860 N   0  0  0  0  0  0  0  0  0  0  0  0
   -6.1730   -1.1920  -20.0040 C   0  0  0  0  0  0  0  0  0  0  0  0
   -6.5390   -1.3020  -18.6840 C   0  0  0  0  0  0  0  0  0  0  0  0
   -6.0350   -0.5370  -17.6810 N   0  0  0  0  0  0  0  0  0  0  0  0
   -5.1180    0.3410  -18.0150 C   0  0  0  0  0  0  0  0  0  0  0  0
   -4.6240    0.5220  -19.3400 C   0  0  0  0  0  0  0  0  0  0  0  0
   -3.6220    1.4860  -19.6310 C   0  0  0  0  0  0  0  0  0  0  0  0
   -3.1520    1.6330  -20.9080 C   0  0  0  0  0  0  0  0  0  0  0  0
   -3.6510    0.8210  -21.9550 C   0  0  0  0  0  0  0  0  0  0  0  0
   -4.6220   -0.1170  -21.7010 C   0  0  0  0  0  0  0  0  0  0  0  0
   -5.1500   -0.2710  -20.3820 C   0  0  0  0  0  0  0  0  0  0  0  0
   -5.0000   -0.7320  -22.5150 H   0  0  0  0  0  0  0  0  0  0  0  0
   -3.2720    0.9570  -22.9670 H   0  0  0  0  0  0  0  0  0  0  0  0
   -2.4000    2.3870  -21.1310 H   0  0  0  0  0  0  0  0  0  0  0  0
   -3.2590    2.1100  -18.8160 H   0  0  0  0  0  0  0  0  0  0  0  0
   -4.7100    0.9740  -17.2230 H   0  0  0  0  0  0  0  0  0  0  0  0
   -7.2840   -2.0420  -18.3960 H   0  0  0  0  0  0  0  0  0  0  0  0
   -6.7730   -3.4060  -20.9450 C   0  0  0  0  0  0  0  0  0  0  0  0
   -6.0570   -4.0870  -20.2460 O   0  0  0  0  0  0  0  0  0  0  0  0
   -7.7150   -3.8270  -21.8400 N   0  0  0  0  0  0  0  0  0  0  0  0
   -8.0470   -5.2070  -22.0940 C   0  0  0  0  0  0  0  0  0  0  0  0
   -7.7520   -5.8210  -21.2480 H   0  0  0  0  0  0  0  0  0  0  0  0
   -9.1180   -5.2760  -22.2300 H   0  0  0  0  0  0  0  0  0  0  0  0
   -7.5660   -5.5880  -23.0000 H   0  0  0  0  0  0  0  0  0  0  0  0
  -10.4690   -3.3940  -22.2690 H   0  0  0  0  0  0  0  0  0  0  0  0
  -10.1910   -1.6430  -22.5180 H   0  0  0  0  0  0  0  0  0  0  0  0
  -11.0710   -4.5210  -27.0540 H   0  0  0  0  0  0  0  0  0  0  0  0
  -10.7490   -2.7710  -26.7510 H   0  0  0  0  0  0  0  0  0  0  0  0
   -8.5410   -4.9170  -26.9560 H   0  0  0  0  0  0  0  0  0  0  0  0
   -9.0940   -3.9720  -28.3280 H   0  0  0  0  0  0  0  0  0  0  0  0
   -8.2710   -3.1780  -26.9670 H   0  0  0  0  0  0  0  0  0  0  0  0
  1  2  1  0  0  0  0
  1 42  1  0  0  0  0
  1 43  1  0  0  0  0
  1 44  1  0  0  0  0
  2  3  1  0  0  0  0
  2 40  1  0  0  0  0
  2 41  1  0  0  0  0
  3  4  2  0  0  0  0
  3  5  2  0  0  0  0
  3  6  1  0  0  0  0
  6  7  1  0  0  0  0
  6  9  1  0  0  0  0
  7  8  1  0  0  0  0
  7 38  1  0  0  0  0
  7 39  1  0  0  0  0
  8  9  1  0  0  0  0
  8 12  1  0  0  0  0
  8 33  1  0  0  0  0
  9 10  1  0  0  0  0
  9 11  1  0  0  0  0
 12 13  2  0  0  0  0
 12 14  1  0  0  0  0
 14 15  1  0  0  0  0
 14 31  1  0  0  0  0
 15 16  2  0  0  0  0
 15 24  1  0  0  0  0
 16 17  1  0  0  0  0
 16 30  1  0  0  0  0
 17 18  2  0  0  0  0
 18 19  1  0  0  0  0
 18 29  1  0  0  0  0
 19 20  2  0  0  0  0
 19 24  1  0  0  0  0
 20 21  1  0  0  0  0
 20 28  1  0  0  0  0
 21 22  2  0  0  0  0
 21 27  1  0  0  0  0
 22 23  1  0  0  0  0
 22 26  1  0  0  0  0
 23 24  2  0  0  0  0
 23 25  1  0  0  0  0
 31 32  2  0  0  0  0
 31 33  1  0  0  0  0
 33 34  1  0  0  0  0
 34 35  1  0  0  0  0
 34 36  1  0  0  0  0
 34 37  1  0  0  0  0
M  END
>  <MODEL>
      17

$$$$
best_conformers_7.pdb
 OpenBabel01292518153D

 44 47  0  0  0  0  0  0  0  0999 V2000
   -8.2050   -7.7290  -26.6050 C   0  0  0  0  0  0  0  0  0  0  0  0
   -7.2060   -6.8190  -25.8940 C   0  0  0  0  0  0  0  0  0  0  0  0
   -7.6700   -6.7920  -24.1780 S   0  0  0  0  0  0  0  0  0  0  0  0
   -7.3880   -8.0660  -23.5530 O   0  0  0  0  0  0  0  0  0  0  0  0
   -9.0230   -6.2360  -24.1430 O   0  0  0  0  0  0  0  0  0  0  0  0
   -6.5660   -5.7120  -23.5130 N   0  0  0  0  0  0  0  0  0  0  0  0
   -6.7130   -4.2700  -23.8210 C   0  0  0  0  0  0  0  0  0  0  0  0
   -6.9440   -3.9740  -22.3240 C   0  0  0  0  0  0  0  0  0  0  0  0
   -6.7810   -5.4880  -22.0600 C   0  0  0  0  0  0  0  0  0  0  0  0
   -5.8820   -5.7100  -21.4860 H   0  0  0  0  0  0  0  0  0  0  0  0
   -7.6340   -6.0210  -21.6280 H   0  0  0  0  0  0  0  0  0  0  0  0
   -5.9260   -3.1440  -21.5740 C   0  0  0  0  0  0  0  0  0  0  0  0
   -4.7420   -3.3490  -21.4710 O   0  0  0  0  0  0  0  0  0  0  0  0
   -6.6470   -2.1370  -20.9350 N   0  0  0  0  0  0  0  0  0  0  0  0
   -6.1150   -1.2410  -19.9830 C   0  0  0  0  0  0  0  0  0  0  0  0
   -6.5460   -1.3010  -18.6810 C   0  0  0  0  0  0  0  0  0  0  0  0
   -6.0520   -0.5290  -17.6830 N   0  0  0  0  0  0  0  0  0  0  0  0
   -5.1230    0.3400  -18.0140 C   0  0  0  0  0  0  0  0  0  0  0  0
   -4.6320    0.5230  -19.3380 C   0  0  0  0  0  0  0  0  0  0  0  0
   -3.6460    1.4980  -19.6330 C   0  0  0  0  0  0  0  0  0  0  0  0
   -3.2050    1.6770  -20.9150 C   0  0  0  0  0  0  0  0  0  0  0  0
   -3.7340    0.8970  -21.9710 C   0  0  0  0  0  0  0  0  0  0  0  0
   -4.6900   -0.0550  -21.7160 C   0  0  0  0  0  0  0  0  0  0  0  0
   -5.1450   -0.2760  -20.3780 C   0  0  0  0  0  0  0  0  0  0  0  0
   -5.0970   -0.6400  -22.5400 H   0  0  0  0  0  0  0  0  0  0  0  0
   -3.3800    1.0590  -22.9880 H   0  0  0  0  0  0  0  0  0  0  0  0
   -2.4450    2.4240  -21.1360 H   0  0  0  0  0  0  0  0  0  0  0  0
   -3.2620    2.0980  -18.8130 H   0  0  0  0  0  0  0  0  0  0  0  0
   -4.7040    0.9640  -17.2220 H   0  0  0  0  0  0  0  0  0  0  0  0
   -7.3230   -2.0120  -18.4010 H   0  0  0  0  0  0  0  0  0  0  0  0
   -8.0260   -2.2720  -21.1490 C   0  0  0  0  0  0  0  0  0  0  0  0
   -8.8940   -1.5890  -20.6590 O   0  0  0  0  0  0  0  0  0  0  0  0
   -8.1810   -3.3140  -22.0090 N   0  0  0  0  0  0  0  0  0  0  0  0
   -9.4700   -3.8920  -22.2960 C   0  0  0  0  0  0  0  0  0  0  0  0
   -9.4290   -4.9090  -21.9490 H   0  0  0  0  0  0  0  0  0  0  0  0
   -9.6940   -3.9040  -23.3660 H   0  0  0  0  0  0  0  0  0  0  0  0
  -10.2140   -3.3390  -21.7270 H   0  0  0  0  0  0  0  0  0  0  0  0
   -5.8120   -3.8340  -24.2590 H   0  0  0  0  0  0  0  0  0  0  0  0
   -7.5930   -4.0260  -24.4250 H   0  0  0  0  0  0  0  0  0  0  0  0
   -6.1650   -7.1480  -25.9860 H   0  0  0  0  0  0  0  0  0  0  0  0
   -7.2810   -5.7770  -26.2300 H   0  0  0  0  0  0  0  0  0  0  0  0
   -7.8940   -7.9260  -27.6310 H   0  0  0  0  0  0  0  0  0  0  0  0
   -8.2840   -8.6880  -26.0930 H   0  0  0  0  0  0  0  0  0  0  0  0
   -9.1990   -7.2740  -26.5990 H   0  0  0  0  0  0  0  0  0  0  0  0
  1  2  1  0  0  0  0
  1 42  1  0  0  0  0
  1 43  1  0  0  0  0
  1 44  1  0  0  0  0
  2  3  1  0  0  0  0
  2 40  1  0  0  0  0
  2 41  1  0  0  0  0
  3  4  2  0  0  0  0
  3  5  2  0  0  0  0
  3  6  1  0  0  0  0
  6  7  1  0  0  0  0
  6  9  1  0  0  0  0
  7  8  1  0  0  0  0
  7 38  1  0  0  0  0
  7 39  1  0  0  0  0
  8  9  1  0  0  0  0
  8 12  1  0  0  0  0
  8 33  1  0  0  0  0
  9 10  1  0  0  0  0
  9 11  1  0  0  0  0
 12 13  2  0  0  0  0
 12 14  1  0  0  0  0
 14 15  1  0  0  0  0
 14 31  1  0  0  0  0
 15 16  2  0  0  0  0
 15 24  1  0  0  0  0
 16 17  1  0  0  0  0
 16 30  1  0  0  0  0
 17 18  2  0  0  0  0
 18 19  1  0  0  0  0
 18 29  1  0  0  0  0
 19 20  2  0  0  0  0
 19 24  1  0  0  0  0
 20 21  1  0  0  0  0
 20 28  1  0  0  0  0
 21 22  2  0  0  0  0
 21 27  1  0  0  0  0
 22 23  1  0  0  0  0
 22 26  1  0  0  0  0
 23 24  2  0  0  0  0
 23 25  1  0  0  0  0
 31 32  2  0  0  0  0
 31 33  1  0  0  0  0
 33 34  1  0  0  0  0
 34 35  1  0  0  0  0
 34 36  1  0  0  0  0
 34 37  1  0  0  0  0
M  END
>  <MODEL>
      18

$$$$
