best_conformers_26.pdb
 OpenBabel01292518153D

 55 60  0  0  1  0  0  0  0  0999 V2000
   -6.9890   -5.1860  -22.8910 C   0  0  0  0  0  0  0  0  0  0  0  0
   -7.4940   -3.9730  -22.1080 C   0  0  1  0  0  0  0  0  0  0  0  0
   -6.4780   -3.4540  -21.0740 C   0  0  0  0  0  0  0  0  0  0  0  0
   -6.7820   -2.0390  -20.9670 N   0  0  0  0  0  0  0  0  0  0  0  0
   -6.1760   -1.1880  -20.0100 C   0  0  0  0  0  0  0  0  0  0  0  0
   -6.5320   -1.2940  -18.6890 C   0  0  0  0  0  0  0  0  0  0  0  0
   -6.0230   -0.5340  -17.6900 N   0  0  0  0  0  0  0  0  0  0  0  0
   -5.1080    0.3500  -18.0170 C   0  0  0  0  0  0  0  0  0  0  0  0
   -4.6160    0.5400  -19.3410 C   0  0  0  0  0  0  0  0  0  0  0  0
   -3.6120    1.5020  -19.6360 C   0  0  0  0  0  0  0  0  0  0  0  0
   -3.1410    1.6480  -20.9120 C   0  0  0  0  0  0  0  0  0  0  0  0
   -3.6460    0.8310  -21.9500 C   0  0  0  0  0  0  0  0  0  0  0  0
   -4.6170   -0.1010  -21.6890 C   0  0  0  0  0  0  0  0  0  0  0  0
   -5.1500   -0.2570  -20.3780 C   0  0  0  0  0  0  0  0  0  0  0  0
   -4.9990   -0.7170  -22.4970 H   0  0  0  0  0  0  0  0  0  0  0  0
   -3.2760    0.9570  -22.9630 H   0  0  0  0  0  0  0  0  0  0  0  0
   -2.3850    2.3950  -21.1370 H   0  0  0  0  0  0  0  0  0  0  0  0
   -3.2370    2.1220  -18.8260 H   0  0  0  0  0  0  0  0  0  0  0  0
   -4.7110    0.9660  -17.2100 H   0  0  0  0  0  0  0  0  0  0  0  0
   -7.2820   -2.0220  -18.3870 H   0  0  0  0  0  0  0  0  0  0  0  0
   -7.5400   -1.5480  -22.0040 C   0  0  0  0  0  0  0  0  0  0  0  0
   -7.8520   -0.3780  -22.1240 O   0  0  0  0  0  0  0  0  0  0  0  0
   -7.9050   -2.7080  -22.9490 C   0  0  1  0  0  0  0  0  0  0  0  0
   -7.1250   -2.4940  -24.2600 C   0  0  0  0  0  0  0  0  0  0  0  0
   -7.5910   -3.3250  -25.3640 N   0  0  0  0  0  0  0  0  0  0  0  0
   -6.6240   -3.7540  -26.3740 C   0  0  0  0  0  0  0  0  0  0  0  0
   -6.2660   -5.2160  -26.3140 C   0  0  0  0  0  0  0  0  0  0  0  0
   -5.0650   -5.8400  -25.9200 C   0  0  0  0  0  0  0  0  0  0  0  0
   -5.2240   -7.1620  -25.9870 N   0  0  0  0  0  0  0  0  0  0  0  0
   -6.4630   -7.2910  -26.4170 N   0  0  0  0  0  0  0  0  0  0  0  0
   -7.1340   -6.1730  -26.6400 N   0  0  0  0  0  0  0  0  0  0  0  0
   -6.8810   -8.1970  -26.5810 H   0  0  0  0  0  0  0  0  0  0  0  0
   -4.1260   -5.4180  -25.5730 H   0  0  0  0  0  0  0  0  0  0  0  0
   -5.7130   -3.1680  -26.2190 H   0  0  0  0  0  0  0  0  0  0  0  0
   -7.0480   -3.5250  -27.3590 H   0  0  0  0  0  0  0  0  0  0  0  0
   -8.9200   -3.5290  -25.6260 C   0  0  0  0  0  0  0  0  0  0  0  0
   -9.3020   -4.0260  -26.6770 O   0  0  0  0  0  0  0  0  0  0  0  0
   -9.8540   -3.1340  -24.5200 C   0  0  0  0  0  0  0  0  0  0  0  0
  -11.2240   -3.2790  -24.7340 C   0  0  0  0  0  0  0  0  0  0  0  0
  -12.1070   -2.9890  -23.7070 C   0  0  0  0  0  0  0  0  0  0  0  0
  -11.6210   -2.5270  -22.5000 C   0  0  0  0  0  0  0  0  0  0  0  0
  -12.5310   -2.2170  -21.5680 F   0  0  0  0  0  0  0  0  0  0  0  0
  -10.2780   -2.3960  -22.2440 C   0  0  0  0  0  0  0  0  0  0  0  0
   -9.3790   -2.7080  -23.2700 C   0  0  0  0  0  0  0  0  0  0  0  0
   -9.9370   -2.0770  -21.2650 H   0  0  0  0  0  0  0  0  0  0  0  0
  -13.1830   -3.1060  -23.7330 H   0  0  0  0  0  0  0  0  0  0  0  0
  -11.5540   -3.6190  -25.7110 H   0  0  0  0  0  0  0  0  0  0  0  0
   -7.2180   -1.4210  -24.4960 H   0  0  0  0  0  0  0  0  0  0  0  0
   -6.0680   -2.7360  -24.0900 H   0  0  0  0  0  0  0  0  0  0  0  0
   -6.5590   -3.9220  -20.0890 H   0  0  0  0  0  0  0  0  0  0  0  0
   -5.4450   -3.6170  -21.4180 H   0  0  0  0  0  0  0  0  0  0  0  0
   -8.4180   -4.2510  -21.5830 H   0  0  0  0  0  0  0  0  0  0  0  0
   -6.0470   -4.9600  -23.4020 H   0  0  0  0  0  0  0  0  0  0  0  0
   -6.8090   -6.0330  -22.2200 H   0  0  0  0  0  0  0  0  0  0  0  0
   -7.7110   -5.4970  -23.6520 H   0  0  0  0  0  0  0  0  0  0  0  0
  1  2  1  0  0  0  0
  1 53  1  0  0  0  0
  1 54  1  0  0  0  0
  1 55  1  0  0  0  0
  2  3  1  0  0  0  0
  2 23  1  0  0  0  0
  2 52  1  1  0  0  0
  3  4  1  0  0  0  0
  3 50  1  0  0  0  0
  3 51  1  0  0  0  0
  4  5  1  0  0  0  0
  4 21  1  0  0  0  0
  5  6  2  0  0  0  0
  5 14  1  0  0  0  0
  6  7  1  0  0  0  0
  6 20  1  0  0  0  0
  7  8  2  0  0  0  0
  8  9  1  0  0  0  0
  8 19  1  0  0  0  0
  9 10  2  0  0  0  0
  9 14  1  0  0  0  0
 10 11  1  0  0  0  0
 10 18  1  0  0  0  0
 11 12  2  0  0  0  0
 11 17  1  0  0  0  0
 12 13  1  0  0  0  0
 12 16  1  0  0  0  0
 13 14  2  0  0  0  0
 13 15  1  0  0  0  0
 21 22  2  0  0  0  0
 23 21  1  1  0  0  0
 23 24  1  0  0  0  0
 23 44  1  0  0  0  0
 24 25  1  0  0  0  0
 24 48  1  0  0  0  0
 24 49  1  0  0  0  0
 25 26  1  0  0  0  0
 25 36  1  0  0  0  0
 26 27  1  0  0  0  0
 26 34  1  0  0  0  0
 26 35  1  0  0  0  0
 27 28  1  0  0  0  0
 27 31  2  0  0  0  0
 28 29  2  0  0  0  0
 28 33  1  0  0  0  0
 29 30  1  0  0  0  0
 30 31  1  0  0  0  0
 30 32  1  0  0  0  0
 36 37  2  0  0  0  0
 36 38  1  0  0  0  0
 38 39  2  0  0  0  0
 38 44  1  0  0  0  0
 39 40  1  0  0  0  0
 39 47  1  0  0  0  0
 40 41  2  0  0  0  0
 40 46  1  0  0  0  0
 41 42  1  0  0  0  0
 41 43  1  0  0  0  0
 43 44  2  0  0  0  0
 43 45  1  0  0  0  0
M  END
>  <MODEL>
       1

$$$$
best_conformers_26.pdb
 OpenBabel01292518153D

 55 60  0  0  1  0  0  0  0  0999 V2000
   -6.9870   -5.1880  -22.8810 C   0  0  0  0  0  0  0  0  0  0  0  0
   -7.4930   -3.9760  -22.1010 C   0  0  1  0  0  0  0  0  0  0  0  0
   -6.4760   -3.4550  -21.0700 C   0  0  0  0  0  0  0  0  0  0  0  0
   -6.7790   -2.0400  -20.9660 N   0  0  0  0  0  0  0  0  0  0  0  0
   -6.1750   -1.1880  -20.0090 C   0  0  0  0  0  0  0  0  0  0  0  0
   -6.5330   -1.2950  -18.6900 C   0  0  0  0  0  0  0  0  0  0  0  0
   -6.0250   -0.5350  -17.6900 N   0  0  0  0  0  0  0  0  0  0  0  0
   -5.1100    0.3480  -18.0180 C   0  0  0  0  0  0  0  0  0  0  0  0
   -4.6170    0.5400  -19.3410 C   0  0  0  0  0  0  0  0  0  0  0  0
   -3.6130    1.5000  -19.6370 C   0  0  0  0  0  0  0  0  0  0  0  0
   -3.1400    1.6470  -20.9110 C   0  0  0  0  0  0  0  0  0  0  0  0
   -3.6450    0.8300  -21.9500 C   0  0  0  0  0  0  0  0  0  0  0  0
   -4.6170   -0.1010  -21.6900 C   0  0  0  0  0  0  0  0  0  0  0  0
   -5.1500   -0.2580  -20.3800 C   0  0  0  0  0  0  0  0  0  0  0  0
   -4.9980   -0.7170  -22.5000 H   0  0  0  0  0  0  0  0  0  0  0  0
   -3.2740    0.9570  -22.9630 H   0  0  0  0  0  0  0  0  0  0  0  0
   -2.3850    2.3960  -21.1350 H   0  0  0  0  0  0  0  0  0  0  0  0
   -3.2400    2.1210  -18.8250 H   0  0  0  0  0  0  0  0  0  0  0  0
   -4.7120    0.9640  -17.2110 H   0  0  0  0  0  0  0  0  0  0  0  0
   -7.2830   -2.0240  -18.3890 H   0  0  0  0  0  0  0  0  0  0  0  0
   -7.5380   -1.5500  -22.0020 C   0  0  0  0  0  0  0  0  0  0  0  0
   -7.8500   -0.3820  -22.1250 O   0  0  0  0  0  0  0  0  0  0  0  0
   -7.9000   -2.7120  -22.9450 C   0  0  1  0  0  0  0  0  0  0  0  0
   -7.1120   -2.4920  -24.2490 C   0  0  0  0  0  0  0  0  0  0  0  0
   -7.5710   -3.3050  -25.3640 N   0  0  0  0  0  0  0  0  0  0  0  0
   -6.5860   -3.7080  -26.3660 C   0  0  0  0  0  0  0  0  0  0  0  0
   -6.1180   -5.1360  -26.2410 C   0  0  0  0  0  0  0  0  0  0  0  0
   -6.8200   -6.3170  -26.5380 C   0  0  0  0  0  0  0  0  0  0  0  0
   -6.0470   -7.3650  -26.2560 N   0  0  0  0  0  0  0  0  0  0  0  0
   -4.9350   -6.8050  -25.8280 N   0  0  0  0  0  0  0  0  0  0  0  0
   -4.9080   -5.4790  -25.7970 N   0  0  0  0  0  0  0  0  0  0  0  0
   -4.1590   -7.3610  -25.4960 H   0  0  0  0  0  0  0  0  0  0  0  0
   -7.8180   -6.4330  -26.9470 H   0  0  0  0  0  0  0  0  0  0  0  0
   -7.0520   -3.5730  -27.3470 H   0  0  0  0  0  0  0  0  0  0  0  0
   -5.7250   -3.0380  -26.2710 H   0  0  0  0  0  0  0  0  0  0  0  0
   -8.8940   -3.5620  -25.6160 C   0  0  0  0  0  0  0  0  0  0  0  0
   -9.2600   -4.1050  -26.6520 O   0  0  0  0  0  0  0  0  0  0  0  0
   -9.8400   -3.1570  -24.5220 C   0  0  0  0  0  0  0  0  0  0  0  0
  -11.2110   -3.3070  -24.7330 C   0  0  0  0  0  0  0  0  0  0  0  0
  -12.0950   -3.0160  -23.7050 C   0  0  0  0  0  0  0  0  0  0  0  0
  -11.6140   -2.5410  -22.5010 C   0  0  0  0  0  0  0  0  0  0  0  0
  -12.5200   -2.2260  -21.5680 F   0  0  0  0  0  0  0  0  0  0  0  0
  -10.2710   -2.4010  -22.2510 C   0  0  0  0  0  0  0  0  0  0  0  0
   -9.3710   -2.7160  -23.2750 C   0  0  0  0  0  0  0  0  0  0  0  0
   -9.9280   -2.0740  -21.2750 H   0  0  0  0  0  0  0  0  0  0  0  0
  -13.1690   -3.1450  -23.7350 H   0  0  0  0  0  0  0  0  0  0  0  0
  -11.5430   -3.6510  -25.7080 H   0  0  0  0  0  0  0  0  0  0  0  0
   -6.0580   -2.7510  -24.0860 H   0  0  0  0  0  0  0  0  0  0  0  0
   -7.2020   -1.4180  -24.4800 H   0  0  0  0  0  0  0  0  0  0  0  0
   -6.5520   -3.9210  -20.0840 H   0  0  0  0  0  0  0  0  0  0  0  0
   -5.4440   -3.6160  -21.4180 H   0  0  0  0  0  0  0  0  0  0  0  0
   -8.4190   -4.2490  -21.5760 H   0  0  0  0  0  0  0  0  0  0  0  0
   -7.6960   -5.4950  -23.6590 H   0  0  0  0  0  0  0  0  0  0  0  0
   -6.0370   -4.9600  -23.3740 H   0  0  0  0  0  0  0  0  0  0  0  0
   -6.8200   -6.0400  -22.2140 H   0  0  0  0  0  0  0  0  0  0  0  0
  1  2  1  0  0  0  0
  1 53  1  0  0  0  0
  1 54  1  0  0  0  0
  1 55  1  0  0  0  0
  2  3  1  0  0  0  0
  2 23  1  0  0  0  0
  2 52  1  1  0  0  0
  3  4  1  0  0  0  0
  3 50  1  0  0  0  0
  3 51  1  0  0  0  0
  4  5  1  0  0  0  0
  4 21  1  0  0  0  0
  5  6  2  0  0  0  0
  5 14  1  0  0  0  0
  6  7  1  0  0  0  0
  6 20  1  0  0  0  0
  7  8  2  0  0  0  0
  8  9  1  0  0  0  0
  8 19  1  0  0  0  0
  9 10  2  0  0  0  0
  9 14  1  0  0  0  0
 10 11  1  0  0  0  0
 10 18  1  0  0  0  0
 11 12  2  0  0  0  0
 11 17  1  0  0  0  0
 12 13  1  0  0  0  0
 12 16  1  0  0  0  0
 13 14  2  0  0  0  0
 13 15  1  0  0  0  0
 21 22  2  0  0  0  0
 23 21  1  1  0  0  0
 23 24  1  0  0  0  0
 23 44  1  0  0  0  0
 24 25  1  0  0  0  0
 24 48  1  0  0  0  0
 24 49  1  0  0  0  0
 25 26  1  0  0  0  0
 25 36  1  0  0  0  0
 26 27  1  0  0  0  0
 26 34  1  0  0  0  0
 26 35  1  0  0  0  0
 27 28  1  0  0  0  0
 27 31  2  0  0  0  0
 28 29  2  0  0  0  0
 28 33  1  0  0  0  0
 29 30  1  0  0  0  0
 30 31  1  0  0  0  0
 30 32  1  0  0  0  0
 36 37  2  0  0  0  0
 36 38  1  0  0  0  0
 38 39  2  0  0  0  0
 38 44  1  0  0  0  0
 39 40  1  0  0  0  0
 39 47  1  0  0  0  0
 40 41  2  0  0  0  0
 40 46  1  0  0  0  0
 41 42  1  0  0  0  0
 41 43  1  0  0  0  0
 43 44  2  0  0  0  0
 43 45  1  0  0  0  0
M  END
>  <MODEL>
       2

$$$$
best_conformers_26.pdb
 OpenBabel01292518153D

 55 60  0  0  1  0  0  0  0  0999 V2000
   -6.9630   -5.1920  -22.8830 C   0  0  0  0  0  0  0  0  0  0  0  0
   -7.4730   -3.9750  -22.1080 C   0  0  1  0  0  0  0  0  0  0  0  0
   -6.4620   -3.4530  -21.0730 C   0  0  0  0  0  0  0  0  0  0  0  0
   -6.7760   -2.0410  -20.9630 N   0  0  0  0  0  0  0  0  0  0  0  0
   -6.1750   -1.1870  -20.0090 C   0  0  0  0  0  0  0  0  0  0  0  0
   -6.5320   -1.2950  -18.6900 C   0  0  0  0  0  0  0  0  0  0  0  0
   -6.0250   -0.5360  -17.6900 N   0  0  0  0  0  0  0  0  0  0  0  0
   -5.1100    0.3480  -18.0180 C   0  0  0  0  0  0  0  0  0  0  0  0
   -4.6180    0.5390  -19.3410 C   0  0  0  0  0  0  0  0  0  0  0  0
   -3.6140    1.5000  -19.6360 C   0  0  0  0  0  0  0  0  0  0  0  0
   -3.1410    1.6470  -20.9110 C   0  0  0  0  0  0  0  0  0  0  0  0
   -3.6440    0.8310  -21.9500 C   0  0  0  0  0  0  0  0  0  0  0  0
   -4.6160   -0.1020  -21.6910 C   0  0  0  0  0  0  0  0  0  0  0  0
   -5.1500   -0.2580  -20.3800 C   0  0  0  0  0  0  0  0  0  0  0  0
   -4.9980   -0.7160  -22.5010 H   0  0  0  0  0  0  0  0  0  0  0  0
   -3.2750    0.9590  -22.9640 H   0  0  0  0  0  0  0  0  0  0  0  0
   -2.3860    2.3960  -21.1350 H   0  0  0  0  0  0  0  0  0  0  0  0
   -3.2410    2.1200  -18.8250 H   0  0  0  0  0  0  0  0  0  0  0  0
   -4.7140    0.9630  -17.2110 H   0  0  0  0  0  0  0  0  0  0  0  0
   -7.2820   -2.0250  -18.3880 H   0  0  0  0  0  0  0  0  0  0  0  0
   -7.5270   -1.5490  -22.0030 C   0  0  0  0  0  0  0  0  0  0  0  0
   -7.8420   -0.3800  -22.1190 O   0  0  0  0  0  0  0  0  0  0  0  0
   -7.8760   -2.7090  -22.9470 C   0  0  1  0  0  0  0  0  0  0  0  0
   -7.0960   -2.5220  -24.2530 C   0  0  0  0  0  0  0  0  0  0  0  0
   -7.5230   -3.4340  -25.3030 N   0  0  0  0  0  0  0  0  0  0  0  0
   -6.5290   -3.8710  -26.2720 C   0  0  0  0  0  0  0  0  0  0  0  0
   -6.2250   -2.8560  -27.3410 C   0  0  0  0  0  0  0  0  0  0  0  0
   -5.3800   -1.7270  -27.3190 C   0  0  0  0  0  0  0  0  0  0  0  0
   -5.4840   -1.0860  -28.4780 N   0  0  0  0  0  0  0  0  0  0  0  0
   -6.3370   -1.8310  -29.1530 N   0  0  0  0  0  0  0  0  0  0  0  0
   -6.8030   -2.8970  -28.5340 N   0  0  0  0  0  0  0  0  0  0  0  0
   -6.6540   -1.5730  -30.0780 H   0  0  0  0  0  0  0  0  0  0  0  0
   -4.6940   -1.3620  -26.5620 H   0  0  0  0  0  0  0  0  0  0  0  0
   -5.6090   -4.0730  -25.7150 H   0  0  0  0  0  0  0  0  0  0  0  0
   -6.8950   -4.7960  -26.7280 H   0  0  0  0  0  0  0  0  0  0  0  0
   -8.8480   -3.5740  -25.6200 C   0  0  0  0  0  0  0  0  0  0  0  0
   -9.2340   -4.0670  -26.6690 O   0  0  0  0  0  0  0  0  0  0  0  0
   -9.7930   -3.1330  -24.5440 C   0  0  0  0  0  0  0  0  0  0  0  0
  -11.1590   -3.2740  -24.7700 C   0  0  0  0  0  0  0  0  0  0  0  0
  -12.0490   -3.0030  -23.7450 C   0  0  0  0  0  0  0  0  0  0  0  0
  -11.5860   -2.5400  -22.5290 C   0  0  0  0  0  0  0  0  0  0  0  0
  -12.4940   -2.2160  -21.6010 F   0  0  0  0  0  0  0  0  0  0  0  0
  -10.2470   -2.4020  -22.2800 C   0  0  0  0  0  0  0  0  0  0  0  0
   -9.3360   -2.7040  -23.2930 C   0  0  0  0  0  0  0  0  0  0  0  0
   -9.9050   -2.0890  -21.3040 H   0  0  0  0  0  0  0  0  0  0  0  0
  -13.1140   -3.1600  -23.7730 H   0  0  0  0  0  0  0  0  0  0  0  0
  -11.4940   -3.6040  -25.7460 H   0  0  0  0  0  0  0  0  0  0  0  0
   -6.0330   -2.7030  -24.0700 H   0  0  0  0  0  0  0  0  0  0  0  0
   -7.2380   -1.4750  -24.5610 H   0  0  0  0  0  0  0  0  0  0  0  0
   -5.4270   -3.6080  -21.4170 H   0  0  0  0  0  0  0  0  0  0  0  0
   -6.5370   -3.9250  -20.0910 H   0  0  0  0  0  0  0  0  0  0  0  0
   -8.4020   -4.2520  -21.5920 H   0  0  0  0  0  0  0  0  0  0  0  0
   -7.6880   -5.5160  -23.6360 H   0  0  0  0  0  0  0  0  0  0  0  0
   -6.7630   -6.0360  -22.2140 H   0  0  0  0  0  0  0  0  0  0  0  0
   -6.0300   -4.9620  -23.4100 H   0  0  0  0  0  0  0  0  0  0  0  0
  1  2  1  0  0  0  0
  1 53  1  0  0  0  0
  1 54  1  0  0  0  0
  1 55  1  0  0  0  0
  2  3  1  0  0  0  0
  2 23  1  0  0  0  0
  2 52  1  1  0  0  0
  3  4  1  0  0  0  0
  3 50  1  0  0  0  0
  3 51  1  0  0  0  0
  4  5  1  0  0  0  0
  4 21  1  0  0  0  0
  5  6  2  0  0  0  0
  5 14  1  0  0  0  0
  6  7  1  0  0  0  0
  6 20  1  0  0  0  0
  7  8  2  0  0  0  0
  8  9  1  0  0  0  0
  8 19  1  0  0  0  0
  9 10  2  0  0  0  0
  9 14  1  0  0  0  0
 10 11  1  0  0  0  0
 10 18  1  0  0  0  0
 11 12  2  0  0  0  0
 11 17  1  0  0  0  0
 12 13  1  0  0  0  0
 12 16  1  0  0  0  0
 13 14  2  0  0  0  0
 13 15  1  0  0  0  0
 21 22  2  0  0  0  0
 23 21  1  1  0  0  0
 23 24  1  0  0  0  0
 23 44  1  0  0  0  0
 24 25  1  0  0  0  0
 24 48  1  0  0  0  0
 24 49  1  0  0  0  0
 25 26  1  0  0  0  0
 25 36  1  0  0  0  0
 26 27  1  0  0  0  0
 26 34  1  0  0  0  0
 26 35  1  0  0  0  0
 27 28  1  0  0  0  0
 27 31  2  0  0  0  0
 28 29  2  0  0  0  0
 28 33  1  0  0  0  0
 29 30  1  0  0  0  0
 30 31  1  0  0  0  0
 30 32  1  0  0  0  0
 36 37  2  0  0  0  0
 36 38  1  0  0  0  0
 38 39  2  0  0  0  0
 38 44  1  0  0  0  0
 39 40  1  0  0  0  0
 39 47  1  0  0  0  0
 40 41  2  0  0  0  0
 40 46  1  0  0  0  0
 41 42  1  0  0  0  0
 41 43  1  0  0  0  0
 43 44  2  0  0  0  0
 43 45  1  0  0  0  0
M  END
>  <MODEL>
       3

$$$$
best_conformers_26.pdb
 OpenBabel01292518153D

 55 60  0  0  1  0  0  0  0  0999 V2000
   -6.9840   -5.2000  -22.8660 C   0  0  0  0  0  0  0  0  0  0  0  0
   -7.4840   -3.9760  -22.0950 C   0  0  1  0  0  0  0  0  0  0  0  0
   -6.4670   -3.4540  -21.0660 C   0  0  0  0  0  0  0  0  0  0  0  0
   -6.7750   -2.0410  -20.9620 N   0  0  0  0  0  0  0  0  0  0  0  0
   -6.1740   -1.1880  -20.0080 C   0  0  0  0  0  0  0  0  0  0  0  0
   -6.5320   -1.2950  -18.6890 C   0  0  0  0  0  0  0  0  0  0  0  0
   -6.0250   -0.5350  -17.6890 N   0  0  0  0  0  0  0  0  0  0  0  0
   -5.1110    0.3480  -18.0170 C   0  0  0  0  0  0  0  0  0  0  0  0
   -4.6180    0.5380  -19.3410 C   0  0  0  0  0  0  0  0  0  0  0  0
   -3.6140    1.5000  -19.6350 C   0  0  0  0  0  0  0  0  0  0  0  0
   -3.1410    1.6470  -20.9110 C   0  0  0  0  0  0  0  0  0  0  0  0
   -3.6440    0.8310  -21.9500 C   0  0  0  0  0  0  0  0  0  0  0  0
   -4.6160   -0.1020  -21.6910 C   0  0  0  0  0  0  0  0  0  0  0  0
   -5.1490   -0.2580  -20.3790 C   0  0  0  0  0  0  0  0  0  0  0  0
   -4.9970   -0.7160  -22.5020 H   0  0  0  0  0  0  0  0  0  0  0  0
   -3.2730    0.9580  -22.9630 H   0  0  0  0  0  0  0  0  0  0  0  0
   -2.3850    2.3960  -21.1340 H   0  0  0  0  0  0  0  0  0  0  0  0
   -3.2420    2.1200  -18.8240 H   0  0  0  0  0  0  0  0  0  0  0  0
   -4.7130    0.9630  -17.2110 H   0  0  0  0  0  0  0  0  0  0  0  0
   -7.2830   -2.0250  -18.3890 H   0  0  0  0  0  0  0  0  0  0  0  0
   -7.5290   -1.5480  -21.9980 C   0  0  0  0  0  0  0  0  0  0  0  0
   -7.8370   -0.3800  -22.1220 O   0  0  0  0  0  0  0  0  0  0  0  0
   -7.8810   -2.7120  -22.9380 C   0  0  1  0  0  0  0  0  0  0  0  0
   -7.0970   -2.5200  -24.2400 C   0  0  0  0  0  0  0  0  0  0  0  0
   -7.5190   -3.4410  -25.2750 N   0  0  0  0  0  0  0  0  0  0  0  0
   -6.5020   -3.8650  -26.2260 C   0  0  0  0  0  0  0  0  0  0  0  0
   -6.1800   -2.8350  -27.2690 C   0  0  0  0  0  0  0  0  0  0  0  0
   -6.7890   -2.7040  -28.5170 C   0  0  0  0  0  0  0  0  0  0  0  0
   -6.2770   -1.6590  -29.1540 N   0  0  0  0  0  0  0  0  0  0  0  0
   -5.3870   -1.2060  -28.2920 N   0  0  0  0  0  0  0  0  0  0  0  0
   -5.2800   -1.8630  -27.1460 N   0  0  0  0  0  0  0  0  0  0  0  0
   -4.8700   -0.3560  -28.4760 H   0  0  0  0  0  0  0  0  0  0  0  0
   -7.5780   -3.3250  -28.8940 H   0  0  0  0  0  0  0  0  0  0  0  0
   -6.8770   -4.7720  -26.7080 H   0  0  0  0  0  0  0  0  0  0  0  0
   -5.5940   -4.0970  -25.6600 H   0  0  0  0  0  0  0  0  0  0  0  0
   -8.8410   -3.5760  -25.6120 C   0  0  0  0  0  0  0  0  0  0  0  0
   -9.2080   -4.0400  -26.6810 O   0  0  0  0  0  0  0  0  0  0  0  0
   -9.8000   -3.1450  -24.5380 C   0  0  0  0  0  0  0  0  0  0  0  0
  -11.1710   -3.2720  -24.7610 C   0  0  0  0  0  0  0  0  0  0  0  0
  -12.0570   -2.9830  -23.7380 C   0  0  0  0  0  0  0  0  0  0  0  0
  -11.5900   -2.5190  -22.5270 C   0  0  0  0  0  0  0  0  0  0  0  0
  -12.5040   -2.1940  -21.6040 F   0  0  0  0  0  0  0  0  0  0  0  0
  -10.2490   -2.3930  -22.2750 C   0  0  0  0  0  0  0  0  0  0  0  0
   -9.3430   -2.7110  -23.2880 C   0  0  0  0  0  0  0  0  0  0  0  0
   -9.9110   -2.0730  -21.3020 H   0  0  0  0  0  0  0  0  0  0  0  0
  -13.1260   -3.1230  -23.7530 H   0  0  0  0  0  0  0  0  0  0  0  0
  -11.5090   -3.6050  -25.7370 H   0  0  0  0  0  0  0  0  0  0  0  0
   -7.2520   -1.4760  -24.5490 H   0  0  0  0  0  0  0  0  0  0  0  0
   -6.0300   -2.6920  -24.0740 H   0  0  0  0  0  0  0  0  0  0  0  0
   -6.5410   -3.9200  -20.0810 H   0  0  0  0  0  0  0  0  0  0  0  0
   -5.4350   -3.6150  -21.4150 H   0  0  0  0  0  0  0  0  0  0  0  0
   -8.4140   -4.2460  -21.5760 H   0  0  0  0  0  0  0  0  0  0  0  0
   -6.7880   -6.0420  -22.1930 H   0  0  0  0  0  0  0  0  0  0  0  0
   -6.0490   -4.9770  -23.3940 H   0  0  0  0  0  0  0  0  0  0  0  0
   -7.7120   -5.5220  -23.6160 H   0  0  0  0  0  0  0  0  0  0  0  0
  1  2  1  0  0  0  0
  1 53  1  0  0  0  0
  1 54  1  0  0  0  0
  1 55  1  0  0  0  0
  2  3  1  0  0  0  0
  2 23  1  0  0  0  0
  2 52  1  1  0  0  0
  3  4  1  0  0  0  0
  3 50  1  0  0  0  0
  3 51  1  0  0  0  0
  4  5  1  0  0  0  0
  4 21  1  0  0  0  0
  5  6  2  0  0  0  0
  5 14  1  0  0  0  0
  6  7  1  0  0  0  0
  6 20  1  0  0  0  0
  7  8  2  0  0  0  0
  8  9  1  0  0  0  0
  8 19  1  0  0  0  0
  9 10  2  0  0  0  0
  9 14  1  0  0  0  0
 10 11  1  0  0  0  0
 10 18  1  0  0  0  0
 11 12  2  0  0  0  0
 11 17  1  0  0  0  0
 12 13  1  0  0  0  0
 12 16  1  0  0  0  0
 13 14  2  0  0  0  0
 13 15  1  0  0  0  0
 21 22  2  0  0  0  0
 23 21  1  1  0  0  0
 23 24  1  0  0  0  0
 23 44  1  0  0  0  0
 24 25  1  0  0  0  0
 24 48  1  0  0  0  0
 24 49  1  0  0  0  0
 25 26  1  0  0  0  0
 25 36  1  0  0  0  0
 26 27  1  0  0  0  0
 26 34  1  0  0  0  0
 26 35  1  0  0  0  0
 27 28  1  0  0  0  0
 27 31  2  0  0  0  0
 28 29  2  0  0  0  0
 28 33  1  0  0  0  0
 29 30  1  0  0  0  0
 30 31  1  0  0  0  0
 30 32  1  0  0  0  0
 36 37  2  0  0  0  0
 36 38  1  0  0  0  0
 38 39  2  0  0  0  0
 38 44  1  0  0  0  0
 39 40  1  0  0  0  0
 39 47  1  0  0  0  0
 40 41  2  0  0  0  0
 40 46  1  0  0  0  0
 41 42  1  0  0  0  0
 41 43  1  0  0  0  0
 43 44  2  0  0  0  0
 43 45  1  0  0  0  0
M  END
>  <MODEL>
       4

$$$$
