best_conformers_67.pdb
 OpenBabel01292518153D

 58 63  0  0  1  0  0  0  0  0999 V2000
   -6.5110   -1.0450  -30.4170 C   0  0  0  0  0  0  0  0  0  0  0  0
   -6.2180   -1.6400  -29.0740 C   0  0  0  0  0  0  0  0  0  0  0  0
   -6.8710   -2.7410  -28.4520 C   0  0  0  0  0  0  0  0  0  0  0  0
   -6.2350   -2.8780  -27.2720 C   0  0  0  0  0  0  0  0  0  0  0  0
   -6.5080   -3.8710  -26.1890 C   0  0  0  0  0  0  0  0  0  0  0  0
   -7.5210   -3.4090  -25.2590 N   0  0  0  0  0  0  0  0  0  0  0  0
   -7.0750   -2.4960  -24.2260 C   0  0  0  0  0  0  0  0  0  0  0  0
   -7.8510   -2.7130  -22.9220 C   0  0  2  0  0  0  0  0  0  0  0  0
   -7.5010   -1.5510  -21.9830 C   0  0  0  0  0  0  0  0  0  0  0  0
   -7.8160   -0.3860  -22.1080 O   0  0  0  0  0  0  0  0  0  0  0  0
   -6.7490   -2.0440  -20.9490 N   0  0  0  0  0  0  0  0  0  0  0  0
   -6.1520   -1.1980  -19.9970 C   0  0  0  0  0  0  0  0  0  0  0  0
   -6.5300   -1.3080  -18.6830 C   0  0  0  0  0  0  0  0  0  0  0  0
   -6.0410   -0.5400  -17.6820 N   0  0  0  0  0  0  0  0  0  0  0  0
   -5.1250    0.3430  -18.0140 C   0  0  0  0  0  0  0  0  0  0  0  0
   -4.6290    0.5340  -19.3380 C   0  0  0  0  0  0  0  0  0  0  0  0
   -3.6270    1.4970  -19.6280 C   0  0  0  0  0  0  0  0  0  0  0  0
   -3.1470    1.6440  -20.9000 C   0  0  0  0  0  0  0  0  0  0  0  0
   -3.6420    0.8340  -21.9480 C   0  0  0  0  0  0  0  0  0  0  0  0
   -4.6160   -0.0990  -21.6990 C   0  0  0  0  0  0  0  0  0  0  0  0
   -5.1450   -0.2610  -20.3800 C   0  0  0  0  0  0  0  0  0  0  0  0
   -4.9860   -0.7090  -22.5210 H   0  0  0  0  0  0  0  0  0  0  0  0
   -3.2550    0.9600  -22.9560 H   0  0  0  0  0  0  0  0  0  0  0  0
   -2.3890    2.3920  -21.1160 H   0  0  0  0  0  0  0  0  0  0  0  0
   -3.2610    2.1150  -18.8120 H   0  0  0  0  0  0  0  0  0  0  0  0
   -4.7130    0.9600  -17.2160 H   0  0  0  0  0  0  0  0  0  0  0  0
   -7.2920   -2.0400  -18.4130 H   0  0  0  0  0  0  0  0  0  0  0  0
   -6.4300   -3.4500  -21.0630 C   0  0  0  0  0  0  0  0  0  0  0  0
   -7.4640   -3.9740  -22.0680 C   0  0  2  0  0  0  0  0  0  0  0  0
   -6.9900   -5.2010  -22.8380 C   0  0  0  0  0  0  0  0  0  0  0  0
   -6.0590   -4.9890  -23.3750 H   0  0  0  0  0  0  0  0  0  0  0  0
   -6.7900   -6.0350  -22.1600 H   0  0  0  0  0  0  0  0  0  0  0  0
   -7.7370   -5.5290  -23.5660 H   0  0  0  0  0  0  0  0  0  0  0  0
   -8.3790   -4.2400  -21.5180 H   0  0  0  0  0  0  0  0  0  0  0  0
   -6.4840   -3.9240  -20.0800 H   0  0  0  0  0  0  0  0  0  0  0  0
   -5.4110   -3.5800  -21.4530 H   0  0  0  0  0  0  0  0  0  0  0  0
   -9.3180   -2.7190  -23.2600 C   0  0  0  0  0  0  0  0  0  0  0  0
  -10.2120   -2.3800  -22.2390 C   0  0  0  0  0  0  0  0  0  0  0  0
  -11.5570   -2.5370  -22.4860 C   0  0  0  0  0  0  0  0  0  0  0  0
  -12.4670   -2.2590  -21.5450 F   0  0  0  0  0  0  0  0  0  0  0  0
  -12.0530   -3.0350  -23.6800 C   0  0  0  0  0  0  0  0  0  0  0  0
  -11.1730   -3.3100  -24.7110 C   0  0  0  0  0  0  0  0  0  0  0  0
   -9.8030   -3.1550  -24.4980 C   0  0  0  0  0  0  0  0  0  0  0  0
   -8.8490   -3.5500  -25.5820 C   0  0  0  0  0  0  0  0  0  0  0  0
   -9.2320   -4.0000  -26.6560 O   0  0  0  0  0  0  0  0  0  0  0  0
  -11.4910   -3.6620  -25.6860 H   0  0  0  0  0  0  0  0  0  0  0  0
  -13.1180   -3.2250  -23.6970 H   0  0  0  0  0  0  0  0  0  0  0  0
   -9.8480   -2.0270  -21.2720 H   0  0  0  0  0  0  0  0  0  0  0  0
   -6.0000   -2.6480  -24.0610 H   0  0  0  0  0  0  0  0  0  0  0  0
   -7.2350   -1.4530  -24.5390 H   0  0  0  0  0  0  0  0  0  0  0  0
   -6.8960   -4.7790  -26.6560 H   0  0  0  0  0  0  0  0  0  0  0  0
   -5.5960   -4.1090  -25.6290 H   0  0  0  0  0  0  0  0  0  0  0  0
   -5.3040   -1.9290  -27.1410 O   0  0  0  0  0  0  0  0  0  0  0  0
   -5.2800   -1.1540  -28.2930 N   0  0  0  0  0  0  0  0  0  0  0  0
   -7.6870   -3.3680  -28.7610 H   0  0  0  0  0  0  0  0  0  0  0  0
   -7.3860   -0.3880  -30.3590 H   0  0  0  0  0  0  0  0  0  0  0  0
   -6.7300   -1.8280  -31.1490 H   0  0  0  0  0  0  0  0  0  0  0  0
   -5.6710   -0.4510  -30.7830 H   0  0  0  0  0  0  0  0  0  0  0  0
  1  2  1  0  0  0  0
  1 56  1  0  0  0  0
  1 57  1  0  0  0  0
  1 58  1  0  0  0  0
  2  3  1  0  0  0  0
  2 54  2  0  0  0  0
  3  4  2  0  0  0  0
  3 55  1  0  0  0  0
  4  5  1  0  0  0  0
  4 53  1  0  0  0  0
  5  6  1  0  0  0  0
  5 51  1  0  0  0  0
  5 52  1  0  0  0  0
  6  7  1  0  0  0  0
  6 44  1  0  0  0  0
  7  8  1  0  0  0  0
  7 49  1  0  0  0  0
  7 50  1  0  0  0  0
  8  9  1  1  0  0  0
  8 29  1  0  0  0  0
  8 37  1  0  0  0  0
  9 10  2  0  0  0  0
  9 11  1  0  0  0  0
 11 12  1  0  0  0  0
 11 28  1  0  0  0  0
 12 13  2  0  0  0  0
 12 21  1  0  0  0  0
 13 14  1  0  0  0  0
 13 27  1  0  0  0  0
 14 15  2  0  0  0  0
 15 16  1  0  0  0  0
 15 26  1  0  0  0  0
 16 17  2  0  0  0  0
 16 21  1  0  0  0  0
 17 18  1  0  0  0  0
 17 25  1  0  0  0  0
 18 19  2  0  0  0  0
 18 24  1  0  0  0  0
 19 20  1  0  0  0  0
 19 23  1  0  0  0  0
 20 21  2  0  0  0  0
 20 22  1  0  0  0  0
 28 29  1  0  0  0  0
 28 35  1  0  0  0  0
 28 36  1  0  0  0  0
 29 30  1  0  0  0  0
 29 34  1  1  0  0  0
 30 31  1  0  0  0  0
 30 32  1  0  0  0  0
 30 33  1  0  0  0  0
 37 38  2  0  0  0  0
 37 43  1  0  0  0  0
 38 39  1  0  0  0  0
 38 48  1  0  0  0  0
 39 40  1  0  0  0  0
 39 41  2  0  0  0  0
 41 42  1  0  0  0  0
 41 47  1  0  0  0  0
 42 43  2  0  0  0  0
 42 46  1  0  0  0  0
 43 44  1  0  0  0  0
 44 45  2  0  0  0  0
 53 54  1  0  0  0  0
M  END
>  <MODEL>
       1

$$$$
best_conformers_67.pdb
 OpenBabel01292518153D

 58 63  0  0  1  0  0  0  0  0999 V2000
   -4.4380   -8.2660  -25.5920 C   0  0  0  0  0  0  0  0  0  0  0  0
   -5.3450   -7.1470  -25.9750 C   0  0  0  0  0  0  0  0  0  0  0  0
   -5.0660   -5.7590  -25.8850 C   0  0  0  0  0  0  0  0  0  0  0  0
   -6.2160   -5.1670  -26.3110 C   0  0  0  0  0  0  0  0  0  0  0  0
   -6.6250   -3.7260  -26.3820 C   0  0  0  0  0  0  0  0  0  0  0  0
   -7.5880   -3.3220  -25.3690 N   0  0  0  0  0  0  0  0  0  0  0  0
   -7.1190   -2.4940  -24.2600 C   0  0  0  0  0  0  0  0  0  0  0  0
   -7.8900   -2.7160  -22.9460 C   0  0  2  0  0  0  0  0  0  0  0  0
   -7.5330   -1.5520  -22.0000 C   0  0  0  0  0  0  0  0  0  0  0  0
   -7.8520   -0.3850  -22.1190 O   0  0  0  0  0  0  0  0  0  0  0  0
   -6.7750   -2.0400  -20.9630 N   0  0  0  0  0  0  0  0  0  0  0  0
   -6.1740   -1.1880  -20.0080 C   0  0  0  0  0  0  0  0  0  0  0  0
   -6.5340   -1.2960  -18.6890 C   0  0  0  0  0  0  0  0  0  0  0  0
   -6.0270   -0.5370  -17.6890 N   0  0  0  0  0  0  0  0  0  0  0  0
   -5.1110    0.3460  -18.0190 C   0  0  0  0  0  0  0  0  0  0  0  0
   -4.6190    0.5380  -19.3430 C   0  0  0  0  0  0  0  0  0  0  0  0
   -3.6140    1.5000  -19.6360 C   0  0  0  0  0  0  0  0  0  0  0  0
   -3.1410    1.6460  -20.9110 C   0  0  0  0  0  0  0  0  0  0  0  0
   -3.6440    0.8310  -21.9500 C   0  0  0  0  0  0  0  0  0  0  0  0
   -4.6170   -0.1010  -21.6930 C   0  0  0  0  0  0  0  0  0  0  0  0
   -5.1510   -0.2570  -20.3800 C   0  0  0  0  0  0  0  0  0  0  0  0
   -4.9960   -0.7150  -22.5040 H   0  0  0  0  0  0  0  0  0  0  0  0
   -3.2720    0.9590  -22.9630 H   0  0  0  0  0  0  0  0  0  0  0  0
   -2.3860    2.3960  -21.1330 H   0  0  0  0  0  0  0  0  0  0  0  0
   -3.2440    2.1190  -18.8230 H   0  0  0  0  0  0  0  0  0  0  0  0
   -4.7150    0.9620  -17.2130 H   0  0  0  0  0  0  0  0  0  0  0  0
   -7.2840   -2.0280  -18.3930 H   0  0  0  0  0  0  0  0  0  0  0  0
   -6.4580   -3.4510  -21.0710 C   0  0  0  0  0  0  0  0  0  0  0  0
   -7.4690   -3.9760  -22.1030 C   0  0  2  0  0  0  0  0  0  0  0  0
   -6.9560   -5.1840  -22.8840 C   0  0  0  0  0  0  0  0  0  0  0  0
   -6.7720   -6.0330  -22.2180 H   0  0  0  0  0  0  0  0  0  0  0  0
   -6.0120   -4.9560  -23.3940 H   0  0  0  0  0  0  0  0  0  0  0  0
   -7.6840   -5.4930  -23.6390 H   0  0  0  0  0  0  0  0  0  0  0  0
   -8.3940   -4.2600  -21.5810 H   0  0  0  0  0  0  0  0  0  0  0  0
   -5.4260   -3.5980  -21.4240 H   0  0  0  0  0  0  0  0  0  0  0  0
   -6.5320   -3.9240  -20.0860 H   0  0  0  0  0  0  0  0  0  0  0  0
   -9.3640   -2.7260  -23.2680 C   0  0  0  0  0  0  0  0  0  0  0  0
  -10.2610   -2.4220  -22.2390 C   0  0  0  0  0  0  0  0  0  0  0  0
  -11.6050   -2.5720  -22.4860 C   0  0  0  0  0  0  0  0  0  0  0  0
  -12.5060   -2.2650  -21.5450 F   0  0  0  0  0  0  0  0  0  0  0  0
  -12.0890   -3.0450  -23.6920 C   0  0  0  0  0  0  0  0  0  0  0  0
  -11.2090   -3.3210  -24.7250 C   0  0  0  0  0  0  0  0  0  0  0  0
   -9.8410   -3.1570  -24.5140 C   0  0  0  0  0  0  0  0  0  0  0  0
   -8.9160   -3.5290  -25.6290 C   0  0  0  0  0  0  0  0  0  0  0  0
   -9.3140   -3.9960  -26.6880 O   0  0  0  0  0  0  0  0  0  0  0  0
  -11.5280   -3.6590  -25.7080 H   0  0  0  0  0  0  0  0  0  0  0  0
  -13.1610   -3.1890  -23.7310 H   0  0  0  0  0  0  0  0  0  0  0  0
   -9.9120   -2.0970  -21.2650 H   0  0  0  0  0  0  0  0  0  0  0  0
   -6.0610   -2.7340  -24.0960 H   0  0  0  0  0  0  0  0  0  0  0  0
   -7.2240   -1.4210  -24.4880 H   0  0  0  0  0  0  0  0  0  0  0  0
   -7.0410   -3.5040  -27.3700 H   0  0  0  0  0  0  0  0  0  0  0  0
   -5.7290   -3.1260  -26.2150 H   0  0  0  0  0  0  0  0  0  0  0  0
   -7.0930   -6.1110  -26.6760 O   0  0  0  0  0  0  0  0  0  0  0  0
   -6.5470   -7.3610  -26.4580 N   0  0  0  0  0  0  0  0  0  0  0  0
   -4.1470   -5.3110  -25.5380 H   0  0  0  0  0  0  0  0  0  0  0  0
   -4.6770   -9.1310  -26.1940 H   0  0  0  0  0  0  0  0  0  0  0  0
   -3.3990   -7.9900  -25.7880 H   0  0  0  0  0  0  0  0  0  0  0  0
   -4.5350   -8.5200  -24.5300 H   0  0  0  0  0  0  0  0  0  0  0  0
  1  2  1  0  0  0  0
  1 56  1  0  0  0  0
  1 57  1  0  0  0  0
  1 58  1  0  0  0  0
  2  3  1  0  0  0  0
  2 54  2  0  0  0  0
  3  4  2  0  0  0  0
  3 55  1  0  0  0  0
  4  5  1  0  0  0  0
  4 53  1  0  0  0  0
  5  6  1  0  0  0  0
  5 51  1  0  0  0  0
  5 52  1  0  0  0  0
  6  7  1  0  0  0  0
  6 44  1  0  0  0  0
  7  8  1  0  0  0  0
  7 49  1  0  0  0  0
  7 50  1  0  0  0  0
  8  9  1  1  0  0  0
  8 29  1  0  0  0  0
  8 37  1  0  0  0  0
  9 10  2  0  0  0  0
  9 11  1  0  0  0  0
 11 12  1  0  0  0  0
 11 28  1  0  0  0  0
 12 13  2  0  0  0  0
 12 21  1  0  0  0  0
 13 14  1  0  0  0  0
 13 27  1  0  0  0  0
 14 15  2  0  0  0  0
 15 16  1  0  0  0  0
 15 26  1  0  0  0  0
 16 17  2  0  0  0  0
 16 21  1  0  0  0  0
 17 18  1  0  0  0  0
 17 25  1  0  0  0  0
 18 19  2  0  0  0  0
 18 24  1  0  0  0  0
 19 20  1  0  0  0  0
 19 23  1  0  0  0  0
 20 21  2  0  0  0  0
 20 22  1  0  0  0  0
 28 29  1  0  0  0  0
 28 35  1  0  0  0  0
 28 36  1  0  0  0  0
 29 30  1  0  0  0  0
 29 34  1  1  0  0  0
 30 31  1  0  0  0  0
 30 32  1  0  0  0  0
 30 33  1  0  0  0  0
 37 38  2  0  0  0  0
 37 43  1  0  0  0  0
 38 39  1  0  0  0  0
 38 48  1  0  0  0  0
 39 40  1  0  0  0  0
 39 41  2  0  0  0  0
 41 42  1  0  0  0  0
 41 47  1  0  0  0  0
 42 43  2  0  0  0  0
 42 46  1  0  0  0  0
 43 44  1  0  0  0  0
 44 45  2  0  0  0  0
 53 54  1  0  0  0  0
M  END
>  <MODEL>
       2

$$$$
best_conformers_67.pdb
 OpenBabel01292518153D

 58 63  0  0  1  0  0  0  0  0999 V2000
   -4.8730    0.1150  -29.0410 C   0  0  0  0  0  0  0  0  0  0  0  0
   -5.5170   -1.1410  -28.5420 C   0  0  0  0  0  0  0  0  0  0  0  0
   -5.3740   -1.7250  -27.2490 C   0  0  0  0  0  0  0  0  0  0  0  0
   -6.1670   -2.8240  -27.2990 C   0  0  0  0  0  0  0  0  0  0  0  0
   -6.4960   -3.8600  -26.2660 C   0  0  0  0  0  0  0  0  0  0  0  0
   -7.4900   -3.4200  -25.3040 N   0  0  0  0  0  0  0  0  0  0  0  0
   -7.0600   -2.5070  -24.2610 C   0  0  0  0  0  0  0  0  0  0  0  0
   -7.8440   -2.7090  -22.9580 C   0  0  2  0  0  0  0  0  0  0  0  0
   -7.5150   -1.5480  -22.0010 C   0  0  0  0  0  0  0  0  0  0  0  0
   -7.8340   -0.3830  -22.1180 O   0  0  0  0  0  0  0  0  0  0  0  0
   -6.7650   -2.0430  -20.9620 N   0  0  0  0  0  0  0  0  0  0  0  0
   -6.1660   -1.1920  -20.0060 C   0  0  0  0  0  0  0  0  0  0  0  0
   -6.5300   -1.3000  -18.6890 C   0  0  0  0  0  0  0  0  0  0  0  0
   -6.0300   -0.5370  -17.6890 N   0  0  0  0  0  0  0  0  0  0  0  0
   -5.1150    0.3460  -18.0170 C   0  0  0  0  0  0  0  0  0  0  0  0
   -4.6210    0.5370  -19.3400 C   0  0  0  0  0  0  0  0  0  0  0  0
   -3.6170    1.5000  -19.6340 C   0  0  0  0  0  0  0  0  0  0  0  0
   -3.1430    1.6460  -20.9080 C   0  0  0  0  0  0  0  0  0  0  0  0
   -3.6440    0.8330  -21.9490 C   0  0  0  0  0  0  0  0  0  0  0  0
   -4.6160   -0.1000  -21.6940 C   0  0  0  0  0  0  0  0  0  0  0  0
   -5.1480   -0.2590  -20.3800 C   0  0  0  0  0  0  0  0  0  0  0  0
   -4.9930   -0.7140  -22.5080 H   0  0  0  0  0  0  0  0  0  0  0  0
   -3.2690    0.9600  -22.9610 H   0  0  0  0  0  0  0  0  0  0  0  0
   -2.3870    2.3960  -21.1300 H   0  0  0  0  0  0  0  0  0  0  0  0
   -3.2460    2.1190  -18.8210 H   0  0  0  0  0  0  0  0  0  0  0  0
   -4.7130    0.9630  -17.2120 H   0  0  0  0  0  0  0  0  0  0  0  0
   -7.2850   -2.0310  -18.3970 H   0  0  0  0  0  0  0  0  0  0  0  0
   -6.4410   -3.4520  -21.0770 C   0  0  0  0  0  0  0  0  0  0  0  0
   -7.4470   -3.9750  -22.1140 C   0  0  2  0  0  0  0  0  0  0  0  0
   -6.9340   -5.1860  -22.8920 C   0  0  0  0  0  0  0  0  0  0  0  0
   -7.6580   -5.5150  -23.6420 H   0  0  0  0  0  0  0  0  0  0  0  0
   -5.9990   -4.9530  -23.4150 H   0  0  0  0  0  0  0  0  0  0  0  0
   -6.7300   -6.0270  -22.2240 H   0  0  0  0  0  0  0  0  0  0  0  0
   -8.3750   -4.2600  -21.5950 H   0  0  0  0  0  0  0  0  0  0  0  0
   -6.5170   -3.9320  -20.0990 H   0  0  0  0  0  0  0  0  0  0  0  0
   -5.4060   -3.5910  -21.4270 H   0  0  0  0  0  0  0  0  0  0  0  0
   -9.3070   -2.7210  -23.3130 C   0  0  0  0  0  0  0  0  0  0  0  0
  -10.2140   -2.4250  -22.2870 C   0  0  0  0  0  0  0  0  0  0  0  0
  -11.5580   -2.5730  -22.5410 C   0  0  0  0  0  0  0  0  0  0  0  0
  -12.4950   -2.2760  -21.6280 F   0  0  0  0  0  0  0  0  0  0  0  0
  -12.0170   -3.0710  -23.7410 C   0  0  0  0  0  0  0  0  0  0  0  0
  -11.1370   -3.3150  -24.7770 C   0  0  0  0  0  0  0  0  0  0  0  0
   -9.7710   -3.1440  -24.5610 C   0  0  0  0  0  0  0  0  0  0  0  0
   -8.8130   -3.5490  -25.6350 C   0  0  0  0  0  0  0  0  0  0  0  0
   -9.1830   -3.9950  -26.7080 O   0  0  0  0  0  0  0  0  0  0  0  0
  -11.4600   -3.6560  -25.7530 H   0  0  0  0  0  0  0  0  0  0  0  0
  -13.0750   -3.2630  -23.7610 H   0  0  0  0  0  0  0  0  0  0  0  0
   -9.8800   -2.0730  -21.3200 H   0  0  0  0  0  0  0  0  0  0  0  0
   -7.2110   -1.4620  -24.5710 H   0  0  0  0  0  0  0  0  0  0  0  0
   -5.9980   -2.6780  -24.0690 H   0  0  0  0  0  0  0  0  0  0  0  0
   -5.5850   -4.0670  -25.6950 H   0  0  0  0  0  0  0  0  0  0  0  0
   -6.8530   -4.7780  -26.7370 H   0  0  0  0  0  0  0  0  0  0  0  0
   -6.7370   -2.9100  -28.5070 O   0  0  0  0  0  0  0  0  0  0  0  0
   -6.3250   -1.8530  -29.2900 N   0  0  0  0  0  0  0  0  0  0  0  0
   -4.7630   -1.3730  -26.4280 H   0  0  0  0  0  0  0  0  0  0  0  0
   -4.7850    0.8330  -28.2210 H   0  0  0  0  0  0  0  0  0  0  0  0
   -5.4490    0.5740  -29.8480 H   0  0  0  0  0  0  0  0  0  0  0  0
   -3.8620   -0.0850  -29.4110 H   0  0  0  0  0  0  0  0  0  0  0  0
  1  2  1  0  0  0  0
  1 56  1  0  0  0  0
  1 57  1  0  0  0  0
  1 58  1  0  0  0  0
  2  3  1  0  0  0  0
  2 54  2  0  0  0  0
  3  4  2  0  0  0  0
  3 55  1  0  0  0  0
  4  5  1  0  0  0  0
  4 53  1  0  0  0  0
  5  6  1  0  0  0  0
  5 51  1  0  0  0  0
  5 52  1  0  0  0  0
  6  7  1  0  0  0  0
  6 44  1  0  0  0  0
  7  8  1  0  0  0  0
  7 49  1  0  0  0  0
  7 50  1  0  0  0  0
  8  9  1  1  0  0  0
  8 29  1  0  0  0  0
  8 37  1  0  0  0  0
  9 10  2  0  0  0  0
  9 11  1  0  0  0  0
 11 12  1  0  0  0  0
 11 28  1  0  0  0  0
 12 13  2  0  0  0  0
 12 21  1  0  0  0  0
 13 14  1  0  0  0  0
 13 27  1  0  0  0  0
 14 15  2  0  0  0  0
 15 16  1  0  0  0  0
 15 26  1  0  0  0  0
 16 17  2  0  0  0  0
 16 21  1  0  0  0  0
 17 18  1  0  0  0  0
 17 25  1  0  0  0  0
 18 19  2  0  0  0  0
 18 24  1  0  0  0  0
 19 20  1  0  0  0  0
 19 23  1  0  0  0  0
 20 21  2  0  0  0  0
 20 22  1  0  0  0  0
 28 29  1  0  0  0  0
 28 35  1  0  0  0  0
 28 36  1  0  0  0  0
 29 30  1  0  0  0  0
 29 34  1  1  0  0  0
 30 31  1  0  0  0  0
 30 32  1  0  0  0  0
 30 33  1  0  0  0  0
 37 38  2  0  0  0  0
 37 43  1  0  0  0  0
 38 39  1  0  0  0  0
 38 48  1  0  0  0  0
 39 40  1  0  0  0  0
 39 41  2  0  0  0  0
 41 42  1  0  0  0  0
 41 47  1  0  0  0  0
 42 43  2  0  0  0  0
 42 46  1  0  0  0  0
 43 44  1  0  0  0  0
 44 45  2  0  0  0  0
 53 54  1  0  0  0  0
M  END
>  <MODEL>
       3

$$$$
