best_conformers_66.pdb
 OpenBabel01292518153D

 44 47  0  0  1  0  0  0  0  0999 V2000
   -8.2420   -2.2250  -25.2080 C   0  0  0  0  0  0  0  0  0  0  0  0
   -6.9850   -2.7480  -24.5220 C   0  0  0  0  0  0  0  0  0  0  0  0
   -7.2820   -3.8160  -23.4430 C   0  0  1  0  0  0  0  0  0  0  0  0
   -7.8010   -5.0990  -24.0510 C   0  0  0  0  0  0  0  0  0  0  0  0
   -9.1490   -5.4720  -24.3770 C   0  0  0  0  0  0  0  0  0  0  0  0
   -9.2290   -6.6710  -25.0250 C   0  0  0  0  0  0  0  0  0  0  0  0
   -7.6550   -7.3390  -25.2770 S   0  0  0  0  0  0  0  0  0  0  0  0
   -6.8970   -6.0320  -24.4530 C   0  0  0  0  0  0  0  0  0  0  0  0
   -5.4320   -5.8790  -24.1810 C   0  0  0  0  0  0  0  0  0  0  0  0
   -5.2780   -5.2910  -22.7810 C   0  0  0  0  0  0  0  0  0  0  0  0
   -6.0850   -4.0680  -22.6100 N   0  0  0  0  0  0  0  0  0  0  0  0
   -5.7740   -3.3520  -21.4700 C   0  0  0  0  0  0  0  0  0  0  0  0
   -4.8220   -3.6520  -20.7770 O   0  0  0  0  0  0  0  0  0  0  0  0
   -6.7010   -2.1930  -21.0600 C   0  0  0  0  0  0  0  0  0  0  0  0
   -6.1070   -1.2690  -20.0260 C   0  0  0  0  0  0  0  0  0  0  0  0
   -6.5060   -1.3260  -18.7180 C   0  0  0  0  0  0  0  0  0  0  0  0
   -6.0390   -0.5470  -17.7030 N   0  0  0  0  0  0  0  0  0  0  0  0
   -5.1180    0.3360  -18.0130 C   0  0  0  0  0  0  0  0  0  0  0  0
   -4.6080    0.5210  -19.3270 C   0  0  0  0  0  0  0  0  0  0  0  0
   -3.6200    1.4990  -19.6190 C   0  0  0  0  0  0  0  0  0  0  0  0
   -3.1580    1.6570  -20.8980 C   0  0  0  0  0  0  0  0  0  0  0  0
   -3.6710    0.8530  -21.9430 C   0  0  0  0  0  0  0  0  0  0  0  0
   -4.6300   -0.0940  -21.6840 C   0  0  0  0  0  0  0  0  0  0  0  0
   -5.1190   -0.2960  -20.3660 C   0  0  0  0  0  0  0  0  0  0  0  0
   -5.0290   -0.6970  -22.4960 H   0  0  0  0  0  0  0  0  0  0  0  0
   -3.3080    0.9940  -22.9590 H   0  0  0  0  0  0  0  0  0  0  0  0
   -2.4040    2.4080  -21.1220 H   0  0  0  0  0  0  0  0  0  0  0  0
   -3.2490    2.1250  -18.8070 H   0  0  0  0  0  0  0  0  0  0  0  0
   -4.7280    0.9620  -17.2060 H   0  0  0  0  0  0  0  0  0  0  0  0
   -7.2730   -2.0380  -18.4130 H   0  0  0  0  0  0  0  0  0  0  0  0
   -7.6130   -2.6470  -20.6480 H   0  0  0  0  0  0  0  0  0  0  0  0
   -7.0150   -1.6330  -21.9460 H   0  0  0  0  0  0  0  0  0  0  0  0
   -5.5830   -6.0300  -22.0350 H   0  0  0  0  0  0  0  0  0  0  0  0
   -4.2370   -5.0510  -22.5610 H   0  0  0  0  0  0  0  0  0  0  0  0
   -4.8820   -6.8260  -24.2700 H   0  0  0  0  0  0  0  0  0  0  0  0
   -5.0120   -5.1580  -24.8990 H   0  0  0  0  0  0  0  0  0  0  0  0
  -10.1050   -7.2100  -25.3830 H   0  0  0  0  0  0  0  0  0  0  0  0
  -10.0140   -4.8640  -24.1260 H   0  0  0  0  0  0  0  0  0  0  0  0
   -8.0710   -3.4360  -22.7820 H   0  0  0  0  0  0  0  0  0  0  0  0
   -6.4340   -1.9240  -24.0570 H   0  0  0  0  0  0  0  0  0  0  0  0
   -6.2980   -3.1850  -25.2570 H   0  0  0  0  0  0  0  0  0  0  0  0
   -8.0090   -1.4290  -25.9210 H   0  0  0  0  0  0  0  0  0  0  0  0
   -8.9520   -1.8150  -24.4810 H   0  0  0  0  0  0  0  0  0  0  0  0
   -8.7500   -3.0210  -25.7580 H   0  0  0  0  0  0  0  0  0  0  0  0
  1  2  1  0  0  0  0
  1 42  1  0  0  0  0
  1 43  1  0  0  0  0
  1 44  1  0  0  0  0
  2  3  1  0  0  0  0
  2 40  1  0  0  0  0
  2 41  1  0  0  0  0
  3  4  1  0  0  0  0
  3 11  1  0  0  0  0
  3 39  1  1  0  0  0
  4  5  1  0  0  0  0
  4  8  2  0  0  0  0
  5  6  2  0  0  0  0
  5 38  1  0  0  0  0
  6  7  1  0  0  0  0
  6 37  1  0  0  0  0
  7  8  1  0  0  0  0
  8  9  1  0  0  0  0
  9 10  1  0  0  0  0
  9 35  1  0  0  0  0
  9 36  1  0  0  0  0
 10 11  1  0  0  0  0
 10 33  1  0  0  0  0
 10 34  1  0  0  0  0
 11 12  1  0  0  0  0
 12 13  2  0  0  0  0
 12 14  1  0  0  0  0
 14 15  1  0  0  0  0
 14 31  1  0  0  0  0
 14 32  1  0  0  0  0
 15 16  2  0  0  0  0
 15 24  1  0  0  0  0
 16 17  1  0  0  0  0
 16 30  1  0  0  0  0
 17 18  2  0  0  0  0
 18 19  1  0  0  0  0
 18 29  1  0  0  0  0
 19 20  2  0  0  0  0
 19 24  1  0  0  0  0
 20 21  1  0  0  0  0
 20 28  1  0  0  0  0
 21 22  2  0  0  0  0
 21 27  1  0  0  0  0
 22 23  1  0  0  0  0
 22 26  1  0  0  0  0
 23 24  2  0  0  0  0
 23 25  1  0  0  0  0
M  END
>  <MODEL>
       1

$$$$
best_conformers_66.pdb
 OpenBabel01292518153D

 44 47  0  0  1  0  0  0  0  0999 V2000
   -5.9540   -6.5090  -20.8470 C   0  0  0  0  0  0  0  0  0  0  0  0
   -5.8420   -6.4670  -22.3580 C   0  0  0  0  0  0  0  0  0  0  0  0
   -5.2100   -5.1730  -22.9040 C   0  0  1  0  0  0  0  0  0  0  0  0
   -4.9300   -5.3060  -24.3710 C   0  0  0  0  0  0  0  0  0  0  0  0
   -3.7830   -5.9070  -24.9770 C   0  0  0  0  0  0  0  0  0  0  0  0
   -3.8960   -5.9850  -26.3330 C   0  0  0  0  0  0  0  0  0  0  0  0
   -5.3970   -5.3390  -26.8910 S   0  0  0  0  0  0  0  0  0  0  0  0
   -5.8820   -4.9660  -25.2760 C   0  0  0  0  0  0  0  0  0  0  0  0
   -7.1990   -4.4210  -24.8320 C   0  0  0  0  0  0  0  0  0  0  0  0
   -7.0420   -3.5240  -23.5920 C   0  0  0  0  0  0  0  0  0  0  0  0
   -6.0330   -3.9760  -22.6210 N   0  0  0  0  0  0  0  0  0  0  0  0
   -5.7900   -3.2840  -21.4520 C   0  0  0  0  0  0  0  0  0  0  0  0
   -4.8670   -3.5810  -20.7100 O   0  0  0  0  0  0  0  0  0  0  0  0
   -6.7460   -2.1340  -21.0360 C   0  0  0  0  0  0  0  0  0  0  0  0
   -6.1400   -1.2120  -20.0020 C   0  0  0  0  0  0  0  0  0  0  0  0
   -6.5060   -1.2810  -18.6820 C   0  0  0  0  0  0  0  0  0  0  0  0
   -6.0140   -0.5120  -17.6710 N   0  0  0  0  0  0  0  0  0  0  0  0
   -5.0960    0.3700  -17.9980 C   0  0  0  0  0  0  0  0  0  0  0  0
   -4.6050    0.5520  -19.3220 C   0  0  0  0  0  0  0  0  0  0  0  0
   -3.6060    1.5160  -19.6270 C   0  0  0  0  0  0  0  0  0  0  0  0
   -3.1500    1.6670  -20.9100 C   0  0  0  0  0  0  0  0  0  0  0  0
   -3.6750    0.8590  -21.9430 C   0  0  0  0  0  0  0  0  0  0  0  0
   -4.6430   -0.0780  -21.6730 C   0  0  0  0  0  0  0  0  0  0  0  0
   -5.1360   -0.2590  -20.3530 C   0  0  0  0  0  0  0  0  0  0  0  0
   -5.0320   -0.6920  -22.4790 H   0  0  0  0  0  0  0  0  0  0  0  0
   -3.3120    0.9860  -22.9580 H   0  0  0  0  0  0  0  0  0  0  0  0
   -2.3890    2.4070  -21.1460 H   0  0  0  0  0  0  0  0  0  0  0  0
   -3.2100    2.1360  -18.8260 H   0  0  0  0  0  0  0  0  0  0  0  0
   -4.6870    0.9920  -17.2000 H   0  0  0  0  0  0  0  0  0  0  0  0
   -7.2610   -1.9990  -18.3670 H   0  0  0  0  0  0  0  0  0  0  0  0
   -7.6480   -2.5910  -20.6020 H   0  0  0  0  0  0  0  0  0  0  0  0
   -7.0840   -1.5450  -21.8980 H   0  0  0  0  0  0  0  0  0  0  0  0
   -6.7790   -2.5190  -23.9440 H   0  0  0  0  0  0  0  0  0  0  0  0
   -8.0190   -3.4440  -23.0980 H   0  0  0  0  0  0  0  0  0  0  0  0
   -7.6830   -3.8600  -25.6350 H   0  0  0  0  0  0  0  0  0  0  0  0
   -7.8740   -5.2600  -24.6140 H   0  0  0  0  0  0  0  0  0  0  0  0
   -3.1830   -6.3930  -27.0350 H   0  0  0  0  0  0  0  0  0  0  0  0
   -2.9280   -6.2840  -24.4220 H   0  0  0  0  0  0  0  0  0  0  0  0
   -4.2510   -5.0460  -22.3940 H   0  0  0  0  0  0  0  0  0  0  0  0
   -6.8220   -6.5860  -22.8270 H   0  0  0  0  0  0  0  0  0  0  0  0
   -5.2410   -7.3150  -22.7060 H   0  0  0  0  0  0  0  0  0  0  0  0
   -6.6370   -5.7400  -20.4850 H   0  0  0  0  0  0  0  0  0  0  0  0
   -6.3320   -7.4780  -20.5210 H   0  0  0  0  0  0  0  0  0  0  0  0
   -4.9840   -6.3330  -20.3750 H   0  0  0  0  0  0  0  0  0  0  0  0
  1  2  1  0  0  0  0
  1 42  1  0  0  0  0
  1 43  1  0  0  0  0
  1 44  1  0  0  0  0
  2  3  1  0  0  0  0
  2 40  1  0  0  0  0
  2 41  1  0  0  0  0
  3  4  1  0  0  0  0
  3 11  1  0  0  0  0
  3 39  1  1  0  0  0
  4  5  1  0  0  0  0
  4  8  2  0  0  0  0
  5  6  2  0  0  0  0
  5 38  1  0  0  0  0
  6  7  1  0  0  0  0
  6 37  1  0  0  0  0
  7  8  1  0  0  0  0
  8  9  1  0  0  0  0
  9 10  1  0  0  0  0
  9 35  1  0  0  0  0
  9 36  1  0  0  0  0
 10 11  1  0  0  0  0
 10 33  1  0  0  0  0
 10 34  1  0  0  0  0
 11 12  1  0  0  0  0
 12 13  2  0  0  0  0
 12 14  1  0  0  0  0
 14 15  1  0  0  0  0
 14 31  1  0  0  0  0
 14 32  1  0  0  0  0
 15 16  2  0  0  0  0
 15 24  1  0  0  0  0
 16 17  1  0  0  0  0
 16 30  1  0  0  0  0
 17 18  2  0  0  0  0
 18 19  1  0  0  0  0
 18 29  1  0  0  0  0
 19 20  2  0  0  0  0
 19 24  1  0  0  0  0
 20 21  1  0  0  0  0
 20 28  1  0  0  0  0
 21 22  2  0  0  0  0
 21 27  1  0  0  0  0
 22 23  1  0  0  0  0
 22 26  1  0  0  0  0
 23 24  2  0  0  0  0
 23 25  1  0  0  0  0
M  END
>  <MODEL>
       2

$$$$
best_conformers_66.pdb
 OpenBabel01292518153D

 44 47  0  0  1  0  0  0  0  0999 V2000
   -5.5070   -4.0050  -25.0320 C   0  0  0  0  0  0  0  0  0  0  0  0
   -6.6880   -3.3040  -24.3770 C   0  0  0  0  0  0  0  0  0  0  0  0
   -7.3280   -4.1120  -23.2210 C   0  0  1  0  0  0  0  0  0  0  0  0
   -7.9620   -5.3730  -23.7470 C   0  0  0  0  0  0  0  0  0  0  0  0
   -9.1430   -5.4220  -24.5580 C   0  0  0  0  0  0  0  0  0  0  0  0
   -9.4290   -6.6820  -24.9870 C   0  0  0  0  0  0  0  0  0  0  0  0
   -8.2900   -7.8260  -24.3950 S   0  0  0  0  0  0  0  0  0  0  0  0
   -7.3880   -6.5930  -23.5960 C   0  0  0  0  0  0  0  0  0  0  0  0
   -6.1050   -6.7700  -22.8540 C   0  0  0  0  0  0  0  0  0  0  0  0
   -6.0120   -5.7450  -21.7310 C   0  0  0  0  0  0  0  0  0  0  0  0
   -6.3750   -4.3780  -22.1400 N   0  0  0  0  0  0  0  0  0  0  0  0
   -5.8530   -3.3490  -21.3680 C   0  0  0  0  0  0  0  0  0  0  0  0
   -4.7330   -3.4280  -20.8940 O   0  0  0  0  0  0  0  0  0  0  0  0
   -6.7630   -2.1390  -21.0280 C   0  0  0  0  0  0  0  0  0  0  0  0
   -6.1440   -1.2110  -20.0070 C   0  0  0  0  0  0  0  0  0  0  0  0
   -6.5050   -1.2800  -18.6850 C   0  0  0  0  0  0  0  0  0  0  0  0
   -6.0140   -0.5130  -17.6720 N   0  0  0  0  0  0  0  0  0  0  0  0
   -5.0970    0.3690  -17.9980 C   0  0  0  0  0  0  0  0  0  0  0  0
   -4.6050    0.5490  -19.3230 C   0  0  0  0  0  0  0  0  0  0  0  0
   -3.6070    1.5140  -19.6270 C   0  0  0  0  0  0  0  0  0  0  0  0
   -3.1480    1.6640  -20.9090 C   0  0  0  0  0  0  0  0  0  0  0  0
   -3.6700    0.8540  -21.9420 C   0  0  0  0  0  0  0  0  0  0  0  0
   -4.6370   -0.0850  -21.6730 C   0  0  0  0  0  0  0  0  0  0  0  0
   -5.1350   -0.2640  -20.3550 C   0  0  0  0  0  0  0  0  0  0  0  0
   -5.0200   -0.7060  -22.4760 H   0  0  0  0  0  0  0  0  0  0  0  0
   -3.3040    0.9800  -22.9560 H   0  0  0  0  0  0  0  0  0  0  0  0
   -2.3870    2.4050  -21.1430 H   0  0  0  0  0  0  0  0  0  0  0  0
   -3.2140    2.1350  -18.8250 H   0  0  0  0  0  0  0  0  0  0  0  0
   -4.6890    0.9900  -17.1980 H   0  0  0  0  0  0  0  0  0  0  0  0
   -7.2580   -1.9950  -18.3660 H   0  0  0  0  0  0  0  0  0  0  0  0
   -7.0320   -1.5740  -21.9300 H   0  0  0  0  0  0  0  0  0  0  0  0
   -7.7090   -2.5270  -20.6210 H   0  0  0  0  0  0  0  0  0  0  0  0
   -6.6710   -6.0610  -20.9120 H   0  0  0  0  0  0  0  0  0  0  0  0
   -5.0000   -5.7120  -21.3250 H   0  0  0  0  0  0  0  0  0  0  0  0
   -6.0130   -7.7820  -22.4520 H   0  0  0  0  0  0  0  0  0  0  0  0
   -5.2620   -6.6520  -23.5480 H   0  0  0  0  0  0  0  0  0  0  0  0
  -10.2640   -7.0290  -25.5800 H   0  0  0  0  0  0  0  0  0  0  0  0
   -9.7510   -4.5610  -24.8210 H   0  0  0  0  0  0  0  0  0  0  0  0
   -8.1510   -3.5050  -22.8170 H   0  0  0  0  0  0  0  0  0  0  0  0
   -7.4620   -3.1210  -25.1300 H   0  0  0  0  0  0  0  0  0  0  0  0
   -6.3820   -2.3170  -24.0180 H   0  0  0  0  0  0  0  0  0  0  0  0
   -5.0720   -3.3850  -25.8170 H   0  0  0  0  0  0  0  0  0  0  0  0
   -5.7960   -4.9590  -25.4790 H   0  0  0  0  0  0  0  0  0  0  0  0
   -4.7250   -4.2110  -24.3010 H   0  0  0  0  0  0  0  0  0  0  0  0
  1  2  1  0  0  0  0
  1 42  1  0  0  0  0
  1 43  1  0  0  0  0
  1 44  1  0  0  0  0
  2  3  1  0  0  0  0
  2 40  1  0  0  0  0
  2 41  1  0  0  0  0
  3  4  1  0  0  0  0
  3 11  1  0  0  0  0
  3 39  1  1  0  0  0
  4  5  1  0  0  0  0
  4  8  2  0  0  0  0
  5  6  2  0  0  0  0
  5 38  1  0  0  0  0
  6  7  1  0  0  0  0
  6 37  1  0  0  0  0
  7  8  1  0  0  0  0
  8  9  1  0  0  0  0
  9 10  1  0  0  0  0
  9 35  1  0  0  0  0
  9 36  1  0  0  0  0
 10 11  1  0  0  0  0
 10 33  1  0  0  0  0
 10 34  1  0  0  0  0
 11 12  1  0  0  0  0
 12 13  2  0  0  0  0
 12 14  1  0  0  0  0
 14 15  1  0  0  0  0
 14 31  1  0  0  0  0
 14 32  1  0  0  0  0
 15 16  2  0  0  0  0
 15 24  1  0  0  0  0
 16 17  1  0  0  0  0
 16 30  1  0  0  0  0
 17 18  2  0  0  0  0
 18 19  1  0  0  0  0
 18 29  1  0  0  0  0
 19 20  2  0  0  0  0
 19 24  1  0  0  0  0
 20 21  1  0  0  0  0
 20 28  1  0  0  0  0
 21 22  2  0  0  0  0
 21 27  1  0  0  0  0
 22 23  1  0  0  0  0
 22 26  1  0  0  0  0
 23 24  2  0  0  0  0
 23 25  1  0  0  0  0
M  END
>  <MODEL>
       3

$$$$
best_conformers_66.pdb
 OpenBabel01292518153D

 44 47  0  0  1  0  0  0  0  0999 V2000
   -8.1000   -5.8580  -21.8650 C   0  0  0  0  0  0  0  0  0  0  0  0
   -6.6280   -6.1510  -21.6220 C   0  0  0  0  0  0  0  0  0  0  0  0
   -5.7220   -5.4160  -22.6400 C   0  0  1  0  0  0  0  0  0  0  0  0
   -5.9070   -5.9700  -24.0190 C   0  0  0  0  0  0  0  0  0  0  0  0
   -5.5810   -7.3190  -24.3680 C   0  0  0  0  0  0  0  0  0  0  0  0
   -5.8020   -7.5830  -25.6810 C   0  0  0  0  0  0  0  0  0  0  0  0
   -6.4020   -6.1970  -26.5210 S   0  0  0  0  0  0  0  0  0  0  0  0
   -6.3650   -5.2480  -25.0740 C   0  0  0  0  0  0  0  0  0  0  0  0
   -6.7790   -3.8140  -24.9440 C   0  0  0  0  0  0  0  0  0  0  0  0
   -5.8990   -3.1790  -23.8730 C   0  0  0  0  0  0  0  0  0  0  0  0
   -5.9290   -3.9530  -22.6200 N   0  0  0  0  0  0  0  0  0  0  0  0
   -5.8180   -3.3860  -21.3630 C   0  0  0  0  0  0  0  0  0  0  0  0
   -5.1920   -3.9250  -20.4610 O   0  0  0  0  0  0  0  0  0  0  0  0
   -6.6690   -2.1420  -21.0820 C   0  0  0  0  0  0  0  0  0  0  0  0
   -6.0920   -1.2410  -20.0370 C   0  0  0  0  0  0  0  0  0  0  0  0
   -6.5050   -1.3330  -18.7320 C   0  0  0  0  0  0  0  0  0  0  0  0
   -6.0460   -0.5680  -17.7060 N   0  0  0  0  0  0  0  0  0  0  0  0
   -5.1300    0.3230  -18.0030 C   0  0  0  0  0  0  0  0  0  0  0  0
   -4.6030    0.5290  -19.3120 C   0  0  0  0  0  0  0  0  0  0  0  0
   -3.6180    1.5130  -19.5920 C   0  0  0  0  0  0  0  0  0  0  0  0
   -3.1440    1.6810  -20.8640 C   0  0  0  0  0  0  0  0  0  0  0  0
   -3.6300    0.8770  -21.9180 C   0  0  0  0  0  0  0  0  0  0  0  0
   -4.5810   -0.0820  -21.6750 C   0  0  0  0  0  0  0  0  0  0  0  0
   -5.0960   -0.2780  -20.3640 C   0  0  0  0  0  0  0  0  0  0  0  0
   -4.9450   -0.6820  -22.5050 H   0  0  0  0  0  0  0  0  0  0  0  0
   -3.2560    1.0320  -22.9260 H   0  0  0  0  0  0  0  0  0  0  0  0
   -2.3960    2.4390  -21.0770 H   0  0  0  0  0  0  0  0  0  0  0  0
   -3.2580    2.1370  -18.7790 H   0  0  0  0  0  0  0  0  0  0  0  0
   -4.7650    0.9430  -17.1840 H   0  0  0  0  0  0  0  0  0  0  0  0
   -7.2690   -2.0580  -18.4520 H   0  0  0  0  0  0  0  0  0  0  0  0
   -6.8960   -1.5880  -21.9940 H   0  0  0  0  0  0  0  0  0  0  0  0
   -7.6320   -2.5190  -20.7100 H   0  0  0  0  0  0  0  0  0  0  0  0
   -6.2510   -2.1630  -23.6950 H   0  0  0  0  0  0  0  0  0  0  0  0
   -4.8680   -3.0840  -24.2530 H   0  0  0  0  0  0  0  0  0  0  0  0
   -7.8320   -3.7650  -24.6320 H   0  0  0  0  0  0  0  0  0  0  0  0
   -6.6950   -3.2560  -25.8850 H   0  0  0  0  0  0  0  0  0  0  0  0
   -5.6500   -8.5180  -26.2050 H   0  0  0  0  0  0  0  0  0  0  0  0
   -5.1920   -8.0510  -23.6650 H   0  0  0  0  0  0  0  0  0  0  0  0
   -4.6860   -5.6180  -22.3390 H   0  0  0  0  0  0  0  0  0  0  0  0
   -6.4320   -7.2270  -21.7140 H   0  0  0  0  0  0  0  0  0  0  0  0
   -6.3350   -5.8640  -20.6070 H   0  0  0  0  0  0  0  0  0  0  0  0
   -8.6810   -6.3190  -21.0610 H   0  0  0  0  0  0  0  0  0  0  0  0
   -8.4290   -6.2230  -22.8450 H   0  0  0  0  0  0  0  0  0  0  0  0
   -8.2820   -4.7790  -21.8360 H   0  0  0  0  0  0  0  0  0  0  0  0
  1  2  1  0  0  0  0
  1 42  1  0  0  0  0
  1 43  1  0  0  0  0
  1 44  1  0  0  0  0
  2  3  1  0  0  0  0
  2 40  1  0  0  0  0
  2 41  1  0  0  0  0
  3  4  1  0  0  0  0
  3 11  1  0  0  0  0
  3 39  1  1  0  0  0
  4  5  1  0  0  0  0
  4  8  2  0  0  0  0
  5  6  2  0  0  0  0
  5 38  1  0  0  0  0
  6  7  1  0  0  0  0
  6 37  1  0  0  0  0
  7  8  1  0  0  0  0
  8  9  1  0  0  0  0
  9 10  1  0  0  0  0
  9 35  1  0  0  0  0
  9 36  1  0  0  0  0
 10 11  1  0  0  0  0
 10 33  1  0  0  0  0
 10 34  1  0  0  0  0
 11 12  1  0  0  0  0
 12 13  2  0  0  0  0
 12 14  1  0  0  0  0
 14 15  1  0  0  0  0
 14 31  1  0  0  0  0
 14 32  1  0  0  0  0
 15 16  2  0  0  0  0
 15 24  1  0  0  0  0
 16 17  1  0  0  0  0
 16 30  1  0  0  0  0
 17 18  2  0  0  0  0
 18 19  1  0  0  0  0
 18 29  1  0  0  0  0
 19 20  2  0  0  0  0
 19 24  1  0  0  0  0
 20 21  1  0  0  0  0
 20 28  1  0  0  0  0
 21 22  2  0  0  0  0
 21 27  1  0  0  0  0
 22 23  1  0  0  0  0
 22 26  1  0  0  0  0
 23 24  2  0  0  0  0
 23 25  1  0  0  0  0
M  END
>  <MODEL>
       4

$$$$
