best_conformers_36.pdb
 OpenBabel01292518153D

 47 50  0  0  1  0  0  0  0  0999 V2000
   -8.3890   -0.2450  -21.5110 O   0  0  0  0  0  0  0  0  0  0  0  0
   -7.8400   -1.2160  -21.9840 C   0  0  0  0  0  0  0  0  0  0  0  0
   -6.8200   -2.0160  -21.1640 C   0  0  0  0  0  0  0  0  0  0  0  0
   -6.2210   -1.1980  -20.0510 C   0  0  0  0  0  0  0  0  0  0  0  0
   -6.6940   -1.3090  -18.7690 C   0  0  0  0  0  0  0  0  0  0  0  0
   -6.2660   -0.5840  -17.6990 N   0  0  0  0  0  0  0  0  0  0  0  0
   -5.3260    0.3020  -17.9320 C   0  0  0  0  0  0  0  0  0  0  0  0
   -4.7430    0.5330  -19.2080 C   0  0  0  0  0  0  0  0  0  0  0  0
   -3.7390    1.5130  -19.4120 C   0  0  0  0  0  0  0  0  0  0  0  0
   -3.1900    1.6990  -20.6510 C   0  0  0  0  0  0  0  0  0  0  0  0
   -3.6210    0.9140  -21.7440 C   0  0  0  0  0  0  0  0  0  0  0  0
   -4.5990   -0.0340  -21.5770 C   0  0  0  0  0  0  0  0  0  0  0  0
   -5.1920   -0.2450  -20.3020 C   0  0  0  0  0  0  0  0  0  0  0  0
   -4.9240   -0.6250  -22.4300 H   0  0  0  0  0  0  0  0  0  0  0  0
   -3.1770    1.0670  -22.7240 H   0  0  0  0  0  0  0  0  0  0  0  0
   -2.4250    2.4540  -20.8060 H   0  0  0  0  0  0  0  0  0  0  0  0
   -3.4250    2.1160  -18.5640 H   0  0  0  0  0  0  0  0  0  0  0  0
   -4.9780    0.8930  -17.0850 H   0  0  0  0  0  0  0  0  0  0  0  0
   -7.4820   -2.0290  -18.5460 H   0  0  0  0  0  0  0  0  0  0  0  0
   -6.0460   -2.4430  -21.8100 H   0  0  0  0  0  0  0  0  0  0  0  0
   -7.3180   -2.8820  -20.7060 H   0  0  0  0  0  0  0  0  0  0  0  0
   -8.1510   -1.7060  -23.2400 N   0  0  0  0  0  0  0  0  0  0  0  0
   -7.1750   -2.1230  -24.2390 C   0  0  0  0  0  0  0  0  0  0  0  0
   -7.5070   -3.5010  -24.8020 C   0  0  0  0  0  0  0  0  0  0  0  0
   -8.9930   -3.5770  -25.2220 C   0  0  0  0  0  0  0  0  0  0  0  0
   -9.7230   -2.2320  -25.0550 C   0  0  0  0  0  0  0  0  0  0  0  0
   -9.5610   -1.6070  -23.6560 C   0  0  1  0  0  0  0  0  0  0  0  0
  -10.5120   -2.2170  -22.6460 C   0  0  0  0  0  0  0  0  0  0  0  0
  -11.8900   -1.7470  -22.5110 C   0  0  0  0  0  0  0  0  0  0  0  0
  -12.7510   -2.6440  -22.0830 C   0  0  0  0  0  0  0  0  0  0  0  0
  -12.7810   -2.6980  -21.7020 C   0  0  0  0  0  0  0  0  0  0  0  0
  -10.1570   -2.1370  -21.3450 C   0  0  0  0  0  0  0  0  0  0  0  0
   -9.8510   -3.4150  -21.7300 C   0  0  0  0  0  0  0  0  0  0  0  0
   -8.8470   -3.6700  -22.0850 H   0  0  0  0  0  0  0  0  0  0  0  0
  -10.4140   -4.2610  -21.3710 H   0  0  0  0  0  0  0  0  0  0  0  0
  -12.8620   -2.5780  -20.5620 H   0  0  0  0  0  0  0  0  0  0  0  0
  -13.4280   -3.6250  -22.1940 H   0  0  0  0  0  0  0  0  0  0  0  0
  -12.4480   -1.8730  -23.3740 H   0  0  0  0  0  0  0  0  0  0  0  0
   -9.8270   -0.5420  -23.7190 H   0  0  0  0  0  0  0  0  0  0  0  0
  -10.7850   -2.3570  -25.2860 H   0  0  0  0  0  0  0  0  0  0  0  0
   -9.3340   -1.5210  -25.7980 H   0  0  0  0  0  0  0  0  0  0  0  0
   -9.5110   -4.3510  -24.6420 H   0  0  0  0  0  0  0  0  0  0  0  0
   -9.0790   -3.8950  -26.2680 H   0  0  0  0  0  0  0  0  0  0  0  0
   -7.2890   -4.2720  -24.0540 H   0  0  0  0  0  0  0  0  0  0  0  0
   -6.8490   -3.7040  -25.6550 H   0  0  0  0  0  0  0  0  0  0  0  0
   -7.1660   -1.3970  -25.0650 H   0  0  0  0  0  0  0  0  0  0  0  0
   -6.1700   -2.0980  -23.8150 H   0  0  0  0  0  0  0  0  0  0  0  0
  1  2  2  0  0  0  0
  2  3  1  0  0  0  0
  2 22  1  0  0  0  0
  3  4  1  0  0  0  0
  3 20  1  0  0  0  0
  3 21  1  0  0  0  0
  4  5  2  0  0  0  0
  4 13  1  0  0  0  0
  5  6  1  0  0  0  0
  5 19  1  0  0  0  0
  6  7  2  0  0  0  0
  7  8  1  0  0  0  0
  7 18  1  0  0  0  0
  8  9  2  0  0  0  0
  8 13  1  0  0  0  0
  9 10  1  0  0  0  0
  9 17  1  0  0  0  0
 10 11  2  0  0  0  0
 10 16  1  0  0  0  0
 11 12  1  0  0  0  0
 11 15  1  0  0  0  0
 12 13  2  0  0  0  0
 12 14  1  0  0  0  0
 22 23  1  0  0  0  0
 22 27  1  0  0  0  0
 23 24  1  0  0  0  0
 23 46  1  0  0  0  0
 23 47  1  0  0  0  0
 24 25  1  0  0  0  0
 24 44  1  0  0  0  0
 24 45  1  0  0  0  0
 25 26  1  0  0  0  0
 25 42  1  0  0  0  0
 25 43  1  0  0  0  0
 26 27  1  0  0  0  0
 26 40  1  0  0  0  0
 26 41  1  0  0  0  0
 27 28  1  0  0  0  0
 27 39  1  6  0  0  0
 28 29  2  0  0  0  0
 28 33  1  0  0  0  0
 29 30  1  0  0  0  0
 29 38  1  0  0  0  0
 30 31  2  0  0  0  0
 30 37  1  0  0  0  0
 31 32  1  0  0  0  0
 31 36  1  0  0  0  0
 32 33  2  0  0  0  0
 32 35  1  0  0  0  0
 33 34  1  0  0  0  0
M  END
>  <MODEL>
       1

$$$$
