best_conformers_52.pdb
 OpenBabel01292518153D

 57 60  0  0  0  0  0  0  0  0999 V2000
   -2.7150   -5.3050  -28.0150 C   0  0  0  0  0  0  0  0  0  0  0  0
   -3.8250   -4.4980  -28.6880 C   0  0  0  0  0  0  0  0  0  0  0  0
   -5.0940   -4.4520  -27.8420 C   0  0  0  0  0  0  0  0  0  0  0  0
   -6.0550   -5.1490  -28.1070 O   0  0  0  0  0  0  0  0  0  0  0  0
   -5.0860   -3.6460  -26.7190 N   0  0  0  0  0  0  0  0  0  0  0  0
   -6.0670   -3.6560  -25.6880 C   0  0  0  0  0  0  0  0  0  0  0  0
   -6.6820   -4.8470  -25.3080 C   0  0  0  0  0  0  0  0  0  0  0  0
   -7.6350   -4.8390  -24.2980 C   0  0  0  0  0  0  0  0  0  0  0  0
   -7.9850   -3.6750  -23.6330 C   0  0  0  0  0  0  0  0  0  0  0  0
   -7.3450   -2.4810  -23.9760 C   0  0  0  0  0  0  0  0  0  0  0  0
   -7.7100   -1.2900  -23.2670 N   0  0  0  0  0  0  0  0  0  0  0  0
   -8.1590   -0.0890  -23.9940 C   0  0  0  0  0  0  0  0  0  0  0  0
   -7.2500    1.1130  -23.8050 C   0  0  0  0  0  0  0  0  0  0  0  0
   -6.1940    1.3600  -24.6860 C   0  0  0  0  0  0  0  0  0  0  0  0
   -5.3480    2.4480  -24.4950 C   0  0  0  0  0  0  0  0  0  0  0  0
   -5.5430    3.3010  -23.4140 C   0  0  0  0  0  0  0  0  0  0  0  0
   -6.5890    3.0610  -22.5290 C   0  0  0  0  0  0  0  0  0  0  0  0
   -7.4400    1.9810  -22.7280 C   0  0  0  0  0  0  0  0  0  0  0  0
   -8.2530    1.7970  -22.0310 H   0  0  0  0  0  0  0  0  0  0  0  0
   -6.7500    3.7280  -21.6850 H   0  0  0  0  0  0  0  0  0  0  0  0
   -4.8750    4.1430  -23.2540 H   0  0  0  0  0  0  0  0  0  0  0  0
   -4.5230    2.6200  -25.1820 H   0  0  0  0  0  0  0  0  0  0  0  0
   -6.0310    0.7130  -25.5450 H   0  0  0  0  0  0  0  0  0  0  0  0
   -8.2060   -0.3470  -25.0530 H   0  0  0  0  0  0  0  0  0  0  0  0
   -9.1780    0.1670  -23.6740 H   0  0  0  0  0  0  0  0  0  0  0  0
   -7.8230   -1.2670  -21.8740 C   0  0  0  0  0  0  0  0  0  0  0  0
   -8.6740   -0.6110  -21.3070 O   0  0  0  0  0  0  0  0  0  0  0  0
   -6.8030   -2.0700  -21.0430 C   0  0  0  0  0  0  0  0  0  0  0  0
   -6.1360   -1.2060  -19.9950 C   0  0  0  0  0  0  0  0  0  0  0  0
   -6.5150   -1.2710  -18.6770 C   0  0  0  0  0  0  0  0  0  0  0  0
   -6.0170   -0.5060  -17.6670 N   0  0  0  0  0  0  0  0  0  0  0  0
   -5.0960    0.3710  -17.9970 C   0  0  0  0  0  0  0  0  0  0  0  0
   -4.6020    0.5550  -19.3200 C   0  0  0  0  0  0  0  0  0  0  0  0
   -3.6050    1.5170  -19.6260 C   0  0  0  0  0  0  0  0  0  0  0  0
   -3.1420    1.6580  -20.9090 C   0  0  0  0  0  0  0  0  0  0  0  0
   -3.6570    0.8390  -21.9370 C   0  0  0  0  0  0  0  0  0  0  0  0
   -4.6380   -0.0850  -21.6700 C   0  0  0  0  0  0  0  0  0  0  0  0
   -5.1340   -0.2550  -20.3520 C   0  0  0  0  0  0  0  0  0  0  0  0
   -5.0370   -0.6890  -22.4790 H   0  0  0  0  0  0  0  0  0  0  0  0
   -3.2780    0.9560  -22.9490 H   0  0  0  0  0  0  0  0  0  0  0  0
   -2.3800    2.4000  -21.1390 H   0  0  0  0  0  0  0  0  0  0  0  0
   -3.2150    2.1440  -18.8280 H   0  0  0  0  0  0  0  0  0  0  0  0
   -4.6860    0.9920  -17.1990 H   0  0  0  0  0  0  0  0  0  0  0  0
   -7.2730   -1.9870  -18.3670 H   0  0  0  0  0  0  0  0  0  0  0  0
   -6.0610   -2.5580  -21.6870 H   0  0  0  0  0  0  0  0  0  0  0  0
   -7.3640   -2.8620  -20.5340 H   0  0  0  0  0  0  0  0  0  0  0  0
   -6.3950   -2.4730  -25.0030 C   0  0  0  0  0  0  0  0  0  0  0  0
   -5.9080   -1.5370  -25.2530 H   0  0  0  0  0  0  0  0  0  0  0  0
   -8.7470   -3.6890  -22.8550 H   0  0  0  0  0  0  0  0  0  0  0  0
   -8.1170   -5.7680  -24.0180 H   0  0  0  0  0  0  0  0  0  0  0  0
   -6.4180   -5.7790  -25.7920 H   0  0  0  0  0  0  0  0  0  0  0  0
   -4.3800   -2.9330  -26.6480 H   0  0  0  0  0  0  0  0  0  0  0  0
   -4.1000   -4.9850  -29.6250 H   0  0  0  0  0  0  0  0  0  0  0  0
   -3.4670   -3.4940  -28.9340 H   0  0  0  0  0  0  0  0  0  0  0  0
   -3.0570   -6.3070  -27.7360 H   0  0  0  0  0  0  0  0  0  0  0  0
   -1.8510   -5.4290  -28.6770 H   0  0  0  0  0  0  0  0  0  0  0  0
   -2.3750   -4.8060  -27.1060 H   0  0  0  0  0  0  0  0  0  0  0  0
  1  2  1  0  0  0  0
  1 55  1  0  0  0  0
  1 56  1  0  0  0  0
  1 57  1  0  0  0  0
  2  3  1  0  0  0  0
  2 53  1  0  0  0  0
  2 54  1  0  0  0  0
  3  4  2  0  0  0  0
  3  5  1  0  0  0  0
  5  6  1  0  0  0  0
  5 52  1  0  0  0  0
  6  7  2  0  0  0  0
  6 47  1  0  0  0  0
  7  8  1  0  0  0  0
  7 51  1  0  0  0  0
  8  9  2  0  0  0  0
  8 50  1  0  0  0  0
  9 10  1  0  0  0  0
  9 49  1  0  0  0  0
 10 11  1  0  0  0  0
 10 47  2  0  0  0  0
 11 12  1  0  0  0  0
 11 26  1  0  0  0  0
 12 13  1  0  0  0  0
 12 24  1  0  0  0  0
 12 25  1  0  0  0  0
 13 14  2  0  0  0  0
 13 18  1  0  0  0  0
 14 15  1  0  0  0  0
 14 23  1  0  0  0  0
 15 16  2  0  0  0  0
 15 22  1  0  0  0  0
 16 17  1  0  0  0  0
 16 21  1  0  0  0  0
 17 18  2  0  0  0  0
 17 20  1  0  0  0  0
 18 19  1  0  0  0  0
 26 27  2  0  0  0  0
 26 28  1  0  0  0  0
 28 29  1  0  0  0  0
 28 45  1  0  0  0  0
 28 46  1  0  0  0  0
 29 30  2  0  0  0  0
 29 38  1  0  0  0  0
 30 31  1  0  0  0  0
 30 44  1  0  0  0  0
 31 32  2  0  0  0  0
 32 33  1  0  0  0  0
 32 43  1  0  0  0  0
 33 34  2  0  0  0  0
 33 38  1  0  0  0  0
 34 35  1  0  0  0  0
 34 42  1  0  0  0  0
 35 36  2  0  0  0  0
 35 41  1  0  0  0  0
 36 37  1  0  0  0  0
 36 40  1  0  0  0  0
 37 38  2  0  0  0  0
 37 39  1  0  0  0  0
 47 48  1  0  0  0  0
M  END
>  <MODEL>
       1

$$$$
best_conformers_52.pdb
 OpenBabel01292518153D

 57 60  0  0  0  0  0  0  0  0999 V2000
   -6.7210    6.6000  -24.4630 C   0  0  0  0  0  0  0  0  0  0  0  0
   -7.4940    6.0770  -23.2490 C   0  0  0  0  0  0  0  0  0  0  0  0
   -8.2930    4.8570  -23.6310 C   0  0  0  0  0  0  0  0  0  0  0  0
   -9.4410    4.9230  -24.0330 O   0  0  0  0  0  0  0  0  0  0  0  0
   -7.5950    3.6790  -23.5690 N   0  0  0  0  0  0  0  0  0  0  0  0
   -8.0890    2.4470  -24.0330 C   0  0  0  0  0  0  0  0  0  0  0  0
   -8.9230    2.3910  -25.1450 C   0  0  0  0  0  0  0  0  0  0  0  0
   -9.3470    1.1540  -25.6050 C   0  0  0  0  0  0  0  0  0  0  0  0
   -8.9640   -0.0150  -24.9640 C   0  0  0  0  0  0  0  0  0  0  0  0
   -8.1580    0.0570  -23.8290 C   0  0  0  0  0  0  0  0  0  0  0  0
   -7.7300   -1.1270  -23.1810 N   0  0  0  0  0  0  0  0  0  0  0  0
   -7.1300   -2.1730  -23.9900 C   0  0  0  0  0  0  0  0  0  0  0  0
   -7.7090   -3.5340  -23.6880 C   0  0  0  0  0  0  0  0  0  0  0  0
   -6.8950   -4.6100  -23.3370 C   0  0  0  0  0  0  0  0  0  0  0  0
   -7.4230   -5.8890  -23.2030 C   0  0  0  0  0  0  0  0  0  0  0  0
   -8.7720   -6.1060  -23.4460 C   0  0  0  0  0  0  0  0  0  0  0  0
   -9.6010   -5.0250  -23.7430 C   0  0  0  0  0  0  0  0  0  0  0  0
   -9.0830   -3.7380  -23.8230 C   0  0  0  0  0  0  0  0  0  0  0  0
   -9.7560   -2.8940  -23.9790 H   0  0  0  0  0  0  0  0  0  0  0  0
  -10.6560   -5.1910  -23.9460 H   0  0  0  0  0  0  0  0  0  0  0  0
   -9.1610   -7.1190  -23.3740 H   0  0  0  0  0  0  0  0  0  0  0  0
   -6.7730   -6.7210  -22.9350 H   0  0  0  0  0  0  0  0  0  0  0  0
   -5.8290   -4.4580  -23.1660 H   0  0  0  0  0  0  0  0  0  0  0  0
   -7.3050   -1.9020  -25.0360 H   0  0  0  0  0  0  0  0  0  0  0  0
   -6.0360   -2.1730  -23.8810 H   0  0  0  0  0  0  0  0  0  0  0  0
   -7.8280   -1.1640  -21.7950 C   0  0  0  0  0  0  0  0  0  0  0  0
   -8.6430   -0.4940  -21.1910 O   0  0  0  0  0  0  0  0  0  0  0  0
   -6.8290   -2.0420  -21.0510 C   0  0  0  0  0  0  0  0  0  0  0  0
   -6.1450   -1.2270  -19.9930 C   0  0  0  0  0  0  0  0  0  0  0  0
   -6.5300   -1.3050  -18.6820 C   0  0  0  0  0  0  0  0  0  0  0  0
   -6.0360   -0.5430  -17.6710 N   0  0  0  0  0  0  0  0  0  0  0  0
   -5.1210    0.3410  -17.9980 C   0  0  0  0  0  0  0  0  0  0  0  0
   -4.6280    0.5380  -19.3190 C   0  0  0  0  0  0  0  0  0  0  0  0
   -3.6450    1.5170  -19.6190 C   0  0  0  0  0  0  0  0  0  0  0  0
   -3.1960    1.6890  -20.8990 C   0  0  0  0  0  0  0  0  0  0  0  0
   -3.7170    0.8930  -21.9420 C   0  0  0  0  0  0  0  0  0  0  0  0
   -4.6780   -0.0520  -21.6780 C   0  0  0  0  0  0  0  0  0  0  0  0
   -5.1580   -0.2630  -20.3560 C   0  0  0  0  0  0  0  0  0  0  0  0
   -5.0760   -0.6300  -22.5070 H   0  0  0  0  0  0  0  0  0  0  0  0
   -3.3560    1.0350  -22.9560 H   0  0  0  0  0  0  0  0  0  0  0  0
   -2.4440    2.4400  -21.1230 H   0  0  0  0  0  0  0  0  0  0  0  0
   -3.2640    2.1350  -18.8090 H   0  0  0  0  0  0  0  0  0  0  0  0
   -4.7220    0.9640  -17.1960 H   0  0  0  0  0  0  0  0  0  0  0  0
   -7.2930   -2.0270  -18.3910 H   0  0  0  0  0  0  0  0  0  0  0  0
   -6.0950   -2.4640  -21.7390 H   0  0  0  0  0  0  0  0  0  0  0  0
   -7.3910   -2.8670  -20.6030 H   0  0  0  0  0  0  0  0  0  0  0  0
   -7.7040    1.2860  -23.3700 C   0  0  0  0  0  0  0  0  0  0  0  0
   -7.0550    1.3420  -22.4980 H   0  0  0  0  0  0  0  0  0  0  0  0
   -9.2920   -0.9810  -25.3350 H   0  0  0  0  0  0  0  0  0  0  0  0
   -9.9670    1.1110  -26.4920 H   0  0  0  0  0  0  0  0  0  0  0  0
   -9.2310    3.3010  -25.6420 H   0  0  0  0  0  0  0  0  0  0  0  0
   -6.6970    3.6660  -23.1100 H   0  0  0  0  0  0  0  0  0  0  0  0
   -6.8130    5.8380  -22.4260 H   0  0  0  0  0  0  0  0  0  0  0  0
   -8.2080    6.8260  -22.9080 H   0  0  0  0  0  0  0  0  0  0  0  0
   -7.3990    6.7910  -25.3010 H   0  0  0  0  0  0  0  0  0  0  0  0
   -6.2090    7.5360  -24.2190 H   0  0  0  0  0  0  0  0  0  0  0  0
   -5.9730    5.8750  -24.7980 H   0  0  0  0  0  0  0  0  0  0  0  0
  1  2  1  0  0  0  0
  1 55  1  0  0  0  0
  1 56  1  0  0  0  0
  1 57  1  0  0  0  0
  2  3  1  0  0  0  0
  2 53  1  0  0  0  0
  2 54  1  0  0  0  0
  3  4  2  0  0  0  0
  3  5  1  0  0  0  0
  5  6  1  0  0  0  0
  5 52  1  0  0  0  0
  6  7  2  0  0  0  0
  6 47  1  0  0  0  0
  7  8  1  0  0  0  0
  7 51  1  0  0  0  0
  8  9  2  0  0  0  0
  8 50  1  0  0  0  0
  9 10  1  0  0  0  0
  9 49  1  0  0  0  0
 10 11  1  0  0  0  0
 10 47  2  0  0  0  0
 11 12  1  0  0  0  0
 11 26  1  0  0  0  0
 12 13  1  0  0  0  0
 12 24  1  0  0  0  0
 12 25  1  0  0  0  0
 13 14  2  0  0  0  0
 13 18  1  0  0  0  0
 14 15  1  0  0  0  0
 14 23  1  0  0  0  0
 15 16  2  0  0  0  0
 15 22  1  0  0  0  0
 16 17  1  0  0  0  0
 16 21  1  0  0  0  0
 17 18  2  0  0  0  0
 17 20  1  0  0  0  0
 18 19  1  0  0  0  0
 26 27  2  0  0  0  0
 26 28  1  0  0  0  0
 28 29  1  0  0  0  0
 28 45  1  0  0  0  0
 28 46  1  0  0  0  0
 29 30  2  0  0  0  0
 29 38  1  0  0  0  0
 30 31  1  0  0  0  0
 30 44  1  0  0  0  0
 31 32  2  0  0  0  0
 32 33  1  0  0  0  0
 32 43  1  0  0  0  0
 33 34  2  0  0  0  0
 33 38  1  0  0  0  0
 34 35  1  0  0  0  0
 34 42  1  0  0  0  0
 35 36  2  0  0  0  0
 35 41  1  0  0  0  0
 36 37  1  0  0  0  0
 36 40  1  0  0  0  0
 37 38  2  0  0  0  0
 37 39  1  0  0  0  0
 47 48  1  0  0  0  0
M  END
>  <MODEL>
       2

$$$$
best_conformers_52.pdb
 OpenBabel01292518153D

 57 60  0  0  0  0  0  0  0  0999 V2000
   -6.7280    6.5990  -24.4690 C   0  0  0  0  0  0  0  0  0  0  0  0
   -7.5030    6.0720  -23.2540 C   0  0  0  0  0  0  0  0  0  0  0  0
   -8.3010    4.8480  -23.6340 C   0  0  0  0  0  0  0  0  0  0  0  0
   -9.4560    4.9100  -24.0180 O   0  0  0  0  0  0  0  0  0  0  0  0
   -7.5960    3.6740  -23.5660 N   0  0  0  0  0  0  0  0  0  0  0  0
   -8.0950    2.4420  -24.0290 C   0  0  0  0  0  0  0  0  0  0  0  0
   -8.9300    2.3890  -25.1420 C   0  0  0  0  0  0  0  0  0  0  0  0
   -9.3530    1.1510  -25.6000 C   0  0  0  0  0  0  0  0  0  0  0  0
   -8.9710   -0.0200  -24.9610 C   0  0  0  0  0  0  0  0  0  0  0  0
   -8.1580    0.0520  -23.8310 C   0  0  0  0  0  0  0  0  0  0  0  0
   -7.7310   -1.1320  -23.1830 N   0  0  0  0  0  0  0  0  0  0  0  0
   -7.1380   -2.1850  -23.9910 C   0  0  0  0  0  0  0  0  0  0  0  0
   -7.7270   -3.5440  -23.6900 C   0  0  0  0  0  0  0  0  0  0  0  0
   -9.1060   -3.7400  -23.8120 C   0  0  0  0  0  0  0  0  0  0  0  0
   -9.6220   -5.0270  -23.7230 C   0  0  0  0  0  0  0  0  0  0  0  0
   -8.7970   -6.1120  -23.4080 C   0  0  0  0  0  0  0  0  0  0  0  0
   -7.4390   -5.9010  -23.1880 C   0  0  0  0  0  0  0  0  0  0  0  0
   -6.9150   -4.6220  -23.3350 C   0  0  0  0  0  0  0  0  0  0  0  0
   -5.8490   -4.4660  -23.1680 H   0  0  0  0  0  0  0  0  0  0  0  0
   -6.7930   -6.7250  -22.8910 H   0  0  0  0  0  0  0  0  0  0  0  0
   -9.2060   -7.1190  -23.3560 H   0  0  0  0  0  0  0  0  0  0  0  0
  -10.6820   -5.1850  -23.9020 H   0  0  0  0  0  0  0  0  0  0  0  0
   -9.7730   -2.8850  -23.9670 H   0  0  0  0  0  0  0  0  0  0  0  0
   -7.3210   -1.9140  -25.0350 H   0  0  0  0  0  0  0  0  0  0  0  0
   -6.0400   -2.1930  -23.8990 H   0  0  0  0  0  0  0  0  0  0  0  0
   -7.8300   -1.1710  -21.7970 C   0  0  0  0  0  0  0  0  0  0  0  0
   -8.6530   -0.5110  -21.1950 O   0  0  0  0  0  0  0  0  0  0  0  0
   -6.8260   -2.0450  -21.0510 C   0  0  0  0  0  0  0  0  0  0  0  0
   -6.1430   -1.2250  -19.9960 C   0  0  0  0  0  0  0  0  0  0  0  0
   -6.5260   -1.3030  -18.6850 C   0  0  0  0  0  0  0  0  0  0  0  0
   -6.0360   -0.5390  -17.6730 N   0  0  0  0  0  0  0  0  0  0  0  0
   -5.1210    0.3440  -17.9990 C   0  0  0  0  0  0  0  0  0  0  0  0
   -4.6250    0.5390  -19.3200 C   0  0  0  0  0  0  0  0  0  0  0  0
   -3.6430    1.5180  -19.6220 C   0  0  0  0  0  0  0  0  0  0  0  0
   -3.1920    1.6900  -20.9020 C   0  0  0  0  0  0  0  0  0  0  0  0
   -3.7150    0.8930  -21.9440 C   0  0  0  0  0  0  0  0  0  0  0  0
   -4.6760   -0.0530  -21.6810 C   0  0  0  0  0  0  0  0  0  0  0  0
   -5.1530   -0.2640  -20.3580 C   0  0  0  0  0  0  0  0  0  0  0  0
   -5.0780   -0.6320  -22.5090 H   0  0  0  0  0  0  0  0  0  0  0  0
   -3.3560    1.0330  -22.9590 H   0  0  0  0  0  0  0  0  0  0  0  0
   -2.4400    2.4420  -21.1280 H   0  0  0  0  0  0  0  0  0  0  0  0
   -3.2600    2.1340  -18.8130 H   0  0  0  0  0  0  0  0  0  0  0  0
   -4.7170    0.9670  -17.1980 H   0  0  0  0  0  0  0  0  0  0  0  0
   -7.2920   -2.0230  -18.3950 H   0  0  0  0  0  0  0  0  0  0  0  0
   -7.3930   -2.8700  -20.6040 H   0  0  0  0  0  0  0  0  0  0  0  0
   -6.0950   -2.4610  -21.7470 H   0  0  0  0  0  0  0  0  0  0  0  0
   -7.7040    1.2820  -23.3720 C   0  0  0  0  0  0  0  0  0  0  0  0
   -7.0510    1.3350  -22.5020 H   0  0  0  0  0  0  0  0  0  0  0  0
   -9.3060   -0.9840  -25.3330 H   0  0  0  0  0  0  0  0  0  0  0  0
   -9.9730    1.1120  -26.4870 H   0  0  0  0  0  0  0  0  0  0  0  0
   -9.2320    3.3020  -25.6400 H   0  0  0  0  0  0  0  0  0  0  0  0
   -6.6930    3.6650  -23.1140 H   0  0  0  0  0  0  0  0  0  0  0  0
   -6.8220    5.8390  -22.4230 H   0  0  0  0  0  0  0  0  0  0  0  0
   -8.2290    6.8180  -22.9280 H   0  0  0  0  0  0  0  0  0  0  0  0
   -5.9750    5.8780  -24.8030 H   0  0  0  0  0  0  0  0  0  0  0  0
   -6.2170    7.5340  -24.2200 H   0  0  0  0  0  0  0  0  0  0  0  0
   -7.4020    6.7850  -25.3130 H   0  0  0  0  0  0  0  0  0  0  0  0
  1  2  1  0  0  0  0
  1 55  1  0  0  0  0
  1 56  1  0  0  0  0
  1 57  1  0  0  0  0
  2  3  1  0  0  0  0
  2 53  1  0  0  0  0
  2 54  1  0  0  0  0
  3  4  2  0  0  0  0
  3  5  1  0  0  0  0
  5  6  1  0  0  0  0
  5 52  1  0  0  0  0
  6  7  2  0  0  0  0
  6 47  1  0  0  0  0
  7  8  1  0  0  0  0
  7 51  1  0  0  0  0
  8  9  2  0  0  0  0
  8 50  1  0  0  0  0
  9 10  1  0  0  0  0
  9 49  1  0  0  0  0
 10 11  1  0  0  0  0
 10 47  2  0  0  0  0
 11 12  1  0  0  0  0
 11 26  1  0  0  0  0
 12 13  1  0  0  0  0
 12 24  1  0  0  0  0
 12 25  1  0  0  0  0
 13 14  2  0  0  0  0
 13 18  1  0  0  0  0
 14 15  1  0  0  0  0
 14 23  1  0  0  0  0
 15 16  2  0  0  0  0
 15 22  1  0  0  0  0
 16 17  1  0  0  0  0
 16 21  1  0  0  0  0
 17 18  2  0  0  0  0
 17 20  1  0  0  0  0
 18 19  1  0  0  0  0
 26 27  2  0  0  0  0
 26 28  1  0  0  0  0
 28 29  1  0  0  0  0
 28 45  1  0  0  0  0
 28 46  1  0  0  0  0
 29 30  2  0  0  0  0
 29 38  1  0  0  0  0
 30 31  1  0  0  0  0
 30 44  1  0  0  0  0
 31 32  2  0  0  0  0
 32 33  1  0  0  0  0
 32 43  1  0  0  0  0
 33 34  2  0  0  0  0
 33 38  1  0  0  0  0
 34 35  1  0  0  0  0
 34 42  1  0  0  0  0
 35 36  2  0  0  0  0
 35 41  1  0  0  0  0
 36 37  1  0  0  0  0
 36 40  1  0  0  0  0
 37 38  2  0  0  0  0
 37 39  1  0  0  0  0
 47 48  1  0  0  0  0
M  END
>  <MODEL>
       3

$$$$
best_conformers_52.pdb
 OpenBabel01292518153D

 57 60  0  0  0  0  0  0  0  0999 V2000
   -7.5670    3.5940  -29.5260 C   0  0  0  0  0  0  0  0  0  0  0  0
   -6.9000    3.9220  -28.1840 C   0  0  0  0  0  0  0  0  0  0  0  0
   -7.7260    3.3730  -27.0420 C   0  0  0  0  0  0  0  0  0  0  0  0
   -8.5680    4.0420  -26.4740 O   0  0  0  0  0  0  0  0  0  0  0  0
   -7.4790    2.0530  -26.7350 N   0  0  0  0  0  0  0  0  0  0  0  0
   -8.2500    1.3070  -25.8180 C   0  0  0  0  0  0  0  0  0  0  0  0
   -9.6240    1.5120  -25.6920 C   0  0  0  0  0  0  0  0  0  0  0  0
  -10.3460    0.7390  -24.7930 C   0  0  0  0  0  0  0  0  0  0  0  0
   -9.7230   -0.1990  -23.9800 C   0  0  0  0  0  0  0  0  0  0  0  0
   -8.3480   -0.3880  -24.1040 C   0  0  0  0  0  0  0  0  0  0  0  0
   -7.6680   -1.3420  -23.2900 N   0  0  0  0  0  0  0  0  0  0  0  0
   -6.9720   -2.4350  -23.9720 C   0  0  0  0  0  0  0  0  0  0  0  0
   -7.5570   -3.7850  -23.5970 C   0  0  0  0  0  0  0  0  0  0  0  0
   -8.9110   -3.9820  -23.8730 C   0  0  0  0  0  0  0  0  0  0  0  0
   -9.4640   -5.2460  -23.7280 C   0  0  0  0  0  0  0  0  0  0  0  0
   -8.7140   -6.3010  -23.2130 C   0  0  0  0  0  0  0  0  0  0  0  0
   -7.3970   -6.0870  -22.8200 C   0  0  0  0  0  0  0  0  0  0  0  0
   -6.8270   -4.8310  -23.0360 C   0  0  0  0  0  0  0  0  0  0  0  0
   -5.7870   -4.6720  -22.7610 H   0  0  0  0  0  0  0  0  0  0  0  0
   -6.8150   -6.8740  -22.3410 H   0  0  0  0  0  0  0  0  0  0  0  0
   -9.1530   -7.2920  -23.1330 H   0  0  0  0  0  0  0  0  0  0  0  0
  -10.4900   -5.4110  -24.0380 H   0  0  0  0  0  0  0  0  0  0  0  0
   -9.5220   -3.1460  -24.2160 H   0  0  0  0  0  0  0  0  0  0  0  0
   -5.8850   -2.3950  -23.8100 H   0  0  0  0  0  0  0  0  0  0  0  0
   -7.1120   -2.2750  -25.0500 H   0  0  0  0  0  0  0  0  0  0  0  0
   -7.7800   -1.2320  -21.9110 C   0  0  0  0  0  0  0  0  0  0  0  0
   -8.6010   -0.5130  -21.3690 O   0  0  0  0  0  0  0  0  0  0  0  0
   -6.8040   -2.0480  -21.0590 C   0  0  0  0  0  0  0  0  0  0  0  0
   -6.1430   -1.2080  -20.0030 C   0  0  0  0  0  0  0  0  0  0  0  0
   -6.5340   -1.2880  -18.6960 C   0  0  0  0  0  0  0  0  0  0  0  0
   -6.0440   -0.5290  -17.6780 N   0  0  0  0  0  0  0  0  0  0  0  0
   -5.1190    0.3460  -17.9960 C   0  0  0  0  0  0  0  0  0  0  0  0
   -4.6090    0.5380  -19.3110 C   0  0  0  0  0  0  0  0  0  0  0  0
   -3.6240    1.5150  -19.6130 C   0  0  0  0  0  0  0  0  0  0  0  0
   -3.1740    1.6830  -20.8940 C   0  0  0  0  0  0  0  0  0  0  0  0
   -3.6900    0.8800  -21.9360 C   0  0  0  0  0  0  0  0  0  0  0  0
   -4.6410   -0.0720  -21.6720 C   0  0  0  0  0  0  0  0  0  0  0  0
   -5.1300   -0.2660  -20.3510 C   0  0  0  0  0  0  0  0  0  0  0  0
   -5.0370   -0.6720  -22.4880 H   0  0  0  0  0  0  0  0  0  0  0  0
   -3.3350    1.0270  -22.9520 H   0  0  0  0  0  0  0  0  0  0  0  0
   -2.4260    2.4380  -21.1240 H   0  0  0  0  0  0  0  0  0  0  0  0
   -3.2430    2.1360  -18.8060 H   0  0  0  0  0  0  0  0  0  0  0  0
   -4.7180    0.9660  -17.1910 H   0  0  0  0  0  0  0  0  0  0  0  0
   -7.3050   -2.0070  -18.4150 H   0  0  0  0  0  0  0  0  0  0  0  0
   -6.0460   -2.5100  -21.6920 H   0  0  0  0  0  0  0  0  0  0  0  0
   -7.3990   -2.8460  -20.5960 H   0  0  0  0  0  0  0  0  0  0  0  0
   -7.6250    0.3180  -25.0620 C   0  0  0  0  0  0  0  0  0  0  0  0
   -6.5610    0.1170  -25.1840 H   0  0  0  0  0  0  0  0  0  0  0  0
  -10.2940   -0.7760  -23.2600 H   0  0  0  0  0  0  0  0  0  0  0  0
  -11.4160    0.8990  -24.7000 H   0  0  0  0  0  0  0  0  0  0  0  0
  -10.1110    2.2710  -26.2920 H   0  0  0  0  0  0  0  0  0  0  0  0
   -6.6670    1.5940  -27.1290 H   0  0  0  0  0  0  0  0  0  0  0  0
   -6.8610    5.0060  -28.0470 H   0  0  0  0  0  0  0  0  0  0  0  0
   -5.8800    3.5170  -28.1440 H   0  0  0  0  0  0  0  0  0  0  0  0
   -7.5950    2.5130  -29.7000 H   0  0  0  0  0  0  0  0  0  0  0  0
   -7.0140    4.0580  -30.3490 H   0  0  0  0  0  0  0  0  0  0  0  0
   -8.6000    3.9640  -29.5460 H   0  0  0  0  0  0  0  0  0  0  0  0
  1  2  1  0  0  0  0
  1 55  1  0  0  0  0
  1 56  1  0  0  0  0
  1 57  1  0  0  0  0
  2  3  1  0  0  0  0
  2 53  1  0  0  0  0
  2 54  1  0  0  0  0
  3  4  2  0  0  0  0
  3  5  1  0  0  0  0
  5  6  1  0  0  0  0
  5 52  1  0  0  0  0
  6  7  2  0  0  0  0
  6 47  1  0  0  0  0
  7  8  1  0  0  0  0
  7 51  1  0  0  0  0
  8  9  2  0  0  0  0
  8 50  1  0  0  0  0
  9 10  1  0  0  0  0
  9 49  1  0  0  0  0
 10 11  1  0  0  0  0
 10 47  2  0  0  0  0
 11 12  1  0  0  0  0
 11 26  1  0  0  0  0
 12 13  1  0  0  0  0
 12 24  1  0  0  0  0
 12 25  1  0  0  0  0
 13 14  2  0  0  0  0
 13 18  1  0  0  0  0
 14 15  1  0  0  0  0
 14 23  1  0  0  0  0
 15 16  2  0  0  0  0
 15 22  1  0  0  0  0
 16 17  1  0  0  0  0
 16 21  1  0  0  0  0
 17 18  2  0  0  0  0
 17 20  1  0  0  0  0
 18 19  1  0  0  0  0
 26 27  2  0  0  0  0
 26 28  1  0  0  0  0
 28 29  1  0  0  0  0
 28 45  1  0  0  0  0
 28 46  1  0  0  0  0
 29 30  2  0  0  0  0
 29 38  1  0  0  0  0
 30 31  1  0  0  0  0
 30 44  1  0  0  0  0
 31 32  2  0  0  0  0
 32 33  1  0  0  0  0
 32 43  1  0  0  0  0
 33 34  2  0  0  0  0
 33 38  1  0  0  0  0
 34 35  1  0  0  0  0
 34 42  1  0  0  0  0
 35 36  2  0  0  0  0
 35 41  1  0  0  0  0
 36 37  1  0  0  0  0
 36 40  1  0  0  0  0
 37 38  2  0  0  0  0
 37 39  1  0  0  0  0
 47 48  1  0  0  0  0
M  END
>  <MODEL>
       4

$$$$
best_conformers_52.pdb
 OpenBabel01292518153D

 57 60  0  0  0  0  0  0  0  0999 V2000
   -8.1750    6.7760  -23.5120 C   0  0  0  0  0  0  0  0  0  0  0  0
   -6.9110    5.9490  -23.8050 C   0  0  0  0  0  0  0  0  0  0  0  0
   -7.2690    4.6610  -24.5010 C   0  0  0  0  0  0  0  0  0  0  0  0
   -7.3470    4.5700  -25.7150 O   0  0  0  0  0  0  0  0  0  0  0  0
   -7.5580    3.6290  -23.6490 N   0  0  0  0  0  0  0  0  0  0  0  0
   -8.0640    2.3950  -24.0900 C   0  0  0  0  0  0  0  0  0  0  0  0
   -8.9280    2.3390  -25.1800 C   0  0  0  0  0  0  0  0  0  0  0  0
   -9.4020    1.1050  -25.5920 C   0  0  0  0  0  0  0  0  0  0  0  0
   -9.0060   -0.0640  -24.9580 C   0  0  0  0  0  0  0  0  0  0  0  0
   -8.1760    0.0150  -23.8410 C   0  0  0  0  0  0  0  0  0  0  0  0
   -7.7320   -1.1590  -23.1880 N   0  0  0  0  0  0  0  0  0  0  0  0
   -7.1300   -2.2080  -23.9940 C   0  0  0  0  0  0  0  0  0  0  0  0
   -7.7170   -3.5620  -23.6840 C   0  0  0  0  0  0  0  0  0  0  0  0
   -9.0960   -3.7510  -23.8020 C   0  0  0  0  0  0  0  0  0  0  0  0
   -9.6200   -5.0330  -23.7060 C   0  0  0  0  0  0  0  0  0  0  0  0
   -8.7990   -6.1210  -23.3860 C   0  0  0  0  0  0  0  0  0  0  0  0
   -7.4410   -5.9180  -23.1690 C   0  0  0  0  0  0  0  0  0  0  0  0
   -6.9090   -4.6430  -23.3250 C   0  0  0  0  0  0  0  0  0  0  0  0
   -5.8410   -4.4930  -23.1650 H   0  0  0  0  0  0  0  0  0  0  0  0
   -6.8000   -6.7460  -22.8680 H   0  0  0  0  0  0  0  0  0  0  0  0
   -9.2060   -7.1270  -23.3220 H   0  0  0  0  0  0  0  0  0  0  0  0
  -10.6820   -5.1830  -23.8810 H   0  0  0  0  0  0  0  0  0  0  0  0
   -9.7580   -2.8920  -23.9580 H   0  0  0  0  0  0  0  0  0  0  0  0
   -6.0320   -2.2100  -23.8990 H   0  0  0  0  0  0  0  0  0  0  0  0
   -7.3150   -1.9400  -25.0380 H   0  0  0  0  0  0  0  0  0  0  0  0
   -7.8250   -1.1850  -21.8030 C   0  0  0  0  0  0  0  0  0  0  0  0
   -8.6490   -0.5190  -21.2030 O   0  0  0  0  0  0  0  0  0  0  0  0
   -6.8210   -2.0510  -21.0500 C   0  0  0  0  0  0  0  0  0  0  0  0
   -6.1420   -1.2250  -19.9950 C   0  0  0  0  0  0  0  0  0  0  0  0
   -6.5260   -1.3020  -18.6840 C   0  0  0  0  0  0  0  0  0  0  0  0
   -6.0360   -0.5370  -17.6720 N   0  0  0  0  0  0  0  0  0  0  0  0
   -5.1200    0.3450  -17.9980 C   0  0  0  0  0  0  0  0  0  0  0  0
   -4.6240    0.5390  -19.3190 C   0  0  0  0  0  0  0  0  0  0  0  0
   -3.6410    1.5170  -19.6210 C   0  0  0  0  0  0  0  0  0  0  0  0
   -3.1900    1.6890  -20.9010 C   0  0  0  0  0  0  0  0  0  0  0  0
   -3.7150    0.8930  -21.9430 C   0  0  0  0  0  0  0  0  0  0  0  0
   -4.6760   -0.0520  -21.6800 C   0  0  0  0  0  0  0  0  0  0  0  0
   -5.1530   -0.2640  -20.3570 C   0  0  0  0  0  0  0  0  0  0  0  0
   -5.0790   -0.6300  -22.5090 H   0  0  0  0  0  0  0  0  0  0  0  0
   -3.3570    1.0350  -22.9580 H   0  0  0  0  0  0  0  0  0  0  0  0
   -2.4370    2.4400  -21.1270 H   0  0  0  0  0  0  0  0  0  0  0  0
   -3.2580    2.1330  -18.8120 H   0  0  0  0  0  0  0  0  0  0  0  0
   -4.7170    0.9680  -17.1970 H   0  0  0  0  0  0  0  0  0  0  0  0
   -7.2920   -2.0220  -18.3930 H   0  0  0  0  0  0  0  0  0  0  0  0
   -6.0870   -2.4700  -21.7410 H   0  0  0  0  0  0  0  0  0  0  0  0
   -7.3870   -2.8750  -20.5990 H   0  0  0  0  0  0  0  0  0  0  0  0
   -7.7160    1.2460  -23.3940 C   0  0  0  0  0  0  0  0  0  0  0  0
   -7.0490    1.3040  -22.5360 H   0  0  0  0  0  0  0  0  0  0  0  0
   -9.3480   -1.0310  -25.3190 H   0  0  0  0  0  0  0  0  0  0  0  0
  -10.0510    1.0690  -26.4560 H   0  0  0  0  0  0  0  0  0  0  0  0
   -9.2070    3.2450  -25.7020 H   0  0  0  0  0  0  0  0  0  0  0  0
   -7.3580    3.7250  -22.6620 H   0  0  0  0  0  0  0  0  0  0  0  0
   -6.3470    5.7310  -22.8880 H   0  0  0  0  0  0  0  0  0  0  0  0
   -6.2690    6.4880  -24.5000 H   0  0  0  0  0  0  0  0  0  0  0  0
   -8.7370    6.3670  -22.6630 H   0  0  0  0  0  0  0  0  0  0  0  0
   -7.9020    7.8130  -23.2960 H   0  0  0  0  0  0  0  0  0  0  0  0
   -8.8420    6.7920  -24.3820 H   0  0  0  0  0  0  0  0  0  0  0  0
  1  2  1  0  0  0  0
  1 55  1  0  0  0  0
  1 56  1  0  0  0  0
  1 57  1  0  0  0  0
  2  3  1  0  0  0  0
  2 53  1  0  0  0  0
  2 54  1  0  0  0  0
  3  4  2  0  0  0  0
  3  5  1  0  0  0  0
  5  6  1  0  0  0  0
  5 52  1  0  0  0  0
  6  7  2  0  0  0  0
  6 47  1  0  0  0  0
  7  8  1  0  0  0  0
  7 51  1  0  0  0  0
  8  9  2  0  0  0  0
  8 50  1  0  0  0  0
  9 10  1  0  0  0  0
  9 49  1  0  0  0  0
 10 11  1  0  0  0  0
 10 47  2  0  0  0  0
 11 12  1  0  0  0  0
 11 26  1  0  0  0  0
 12 13  1  0  0  0  0
 12 24  1  0  0  0  0
 12 25  1  0  0  0  0
 13 14  2  0  0  0  0
 13 18  1  0  0  0  0
 14 15  1  0  0  0  0
 14 23  1  0  0  0  0
 15 16  2  0  0  0  0
 15 22  1  0  0  0  0
 16 17  1  0  0  0  0
 16 21  1  0  0  0  0
 17 18  2  0  0  0  0
 17 20  1  0  0  0  0
 18 19  1  0  0  0  0
 26 27  2  0  0  0  0
 26 28  1  0  0  0  0
 28 29  1  0  0  0  0
 28 45  1  0  0  0  0
 28 46  1  0  0  0  0
 29 30  2  0  0  0  0
 29 38  1  0  0  0  0
 30 31  1  0  0  0  0
 30 44  1  0  0  0  0
 31 32  2  0  0  0  0
 32 33  1  0  0  0  0
 32 43  1  0  0  0  0
 33 34  2  0  0  0  0
 33 38  1  0  0  0  0
 34 35  1  0  0  0  0
 34 42  1  0  0  0  0
 35 36  2  0  0  0  0
 35 41  1  0  0  0  0
 36 37  1  0  0  0  0
 36 40  1  0  0  0  0
 37 38  2  0  0  0  0
 37 39  1  0  0  0  0
 47 48  1  0  0  0  0
M  END
>  <MODEL>
       5

$$$$
