best_conformers_39.pdb
 OpenBabel01292518153D

 40 44  0  0  1  0  0  0  0  0999 V2000
   -6.7250   -0.3350  -25.6380 C   0  0  0  0  0  0  0  0  0  0  0  0
   -5.7900   -1.4610  -25.2300 C   0  0  0  0  0  0  0  0  0  0  0  0
   -4.5700   -1.3570  -25.2690 O   0  0  0  0  0  0  0  0  0  0  0  0
   -6.3720   -2.6240  -24.8220 N   0  0  0  0  0  0  0  0  0  0  0  0
   -5.5340   -3.6930  -24.2420 C   0  0  0  0  0  0  0  0  0  0  0  0
   -6.5850   -4.5390  -23.5070 C   0  0  2  0  0  0  0  0  0  0  0  0
   -7.7980   -4.3690  -24.4360 C   0  0  0  0  0  0  0  0  0  0  0  0
   -7.7580   -2.8290  -24.3310 C   0  0  1  0  0  0  0  0  0  0  0  0
   -7.7380   -2.6820  -22.8620 C   0  0  0  0  0  0  0  0  0  0  0  0
   -7.5890   -1.5600  -21.9840 C   0  0  0  0  0  0  0  0  0  0  0  0
   -7.9880   -0.4220  -22.0710 O   0  5  0  0  0  0  0  0  0  0  0  0
   -6.7660   -2.0540  -20.9430 N   0  0  0  0  0  0  0  0  0  0  0  0
   -6.1410   -1.2100  -19.9900 C   0  0  0  0  0  0  0  0  0  0  0  0
   -6.5230   -1.2960  -18.6780 C   0  0  0  0  0  0  0  0  0  0  0  0
   -6.0220   -0.5210  -17.6850 N   0  0  0  0  0  0  0  0  0  0  0  0
   -5.1060    0.3580  -18.0120 C   0  0  0  0  0  0  0  0  0  0  0  0
   -4.6090    0.5440  -19.3350 C   0  0  0  0  0  0  0  0  0  0  0  0
   -3.6090    1.5080  -19.6350 C   0  0  0  0  0  0  0  0  0  0  0  0
   -3.1440    1.6550  -20.9120 C   0  0  0  0  0  0  0  0  0  0  0  0
   -3.6520    0.8380  -21.9490 C   0  0  0  0  0  0  0  0  0  0  0  0
   -4.6150   -0.1040  -21.6870 C   0  0  0  0  0  0  0  0  0  0  0  0
   -5.1340   -0.2640  -20.3690 C   0  0  0  0  0  0  0  0  0  0  0  0
   -4.9800   -0.7250  -22.5040 H   0  0  0  0  0  0  0  0  0  0  0  0
   -3.2880    0.9630  -22.9650 H   0  0  0  0  0  0  0  0  0  0  0  0
   -2.3870    2.4020  -21.1410 H   0  0  0  0  0  0  0  0  0  0  0  0
   -3.2320    2.1280  -18.8260 H   0  0  0  0  0  0  0  0  0  0  0  0
   -4.7110    0.9730  -17.2030 H   0  0  0  0  0  0  0  0  0  0  0  0
   -7.2770   -2.0180  -18.3810 H   0  0  0  0  0  0  0  0  0  0  0  0
   -6.3420   -3.3650  -21.1950 C   0  0  0  0  0  0  0  0  0  0  0  0
   -5.5190   -3.9870  -20.5650 O   0  0  0  0  0  0  0  0  0  0  0  0
   -7.0400   -3.7420  -22.3420 N   0  0  0  0  0  0  0  0  0  0  0  0
   -8.4840   -2.2270  -24.8850 H   0  0  0  0  0  0  0  0  0  0  0  0
   -8.7080   -4.8160  -24.0380 H   0  0  0  0  0  0  0  0  0  0  0  0
   -7.5910   -4.7210  -25.4510 H   0  0  0  0  0  0  0  0  0  0  0  0
   -6.2750   -5.5340  -23.2100 H   0  0  0  0  0  0  0  0  0  0  0  0
   -4.8410   -3.2600  -23.5210 H   0  0  0  0  0  0  0  0  0  0  0  0
   -5.0010   -4.2300  -25.0300 H   0  0  0  0  0  0  0  0  0  0  0  0
   -6.1010    0.4780  -26.0100 H   0  0  0  0  0  0  0  0  0  0  0  0
   -7.3270    0.0080  -24.7890 H   0  0  0  0  0  0  0  0  0  0  0  0
   -7.4210   -0.6510  -26.4240 H   0  0  0  0  0  0  0  0  0  0  0  0
  1  2  1  0  0  0  0
  1 38  1  0  0  0  0
  1 39  1  0  0  0  0
  1 40  1  0  0  0  0
  2  3  2  0  0  0  0
  2  4  1  0  0  0  0
  4  5  1  0  0  0  0
  4  8  1  0  0  0  0
  5  6  1  0  0  0  0
  5 36  1  0  0  0  0
  5 37  1  0  0  0  0
  6  7  1  0  0  0  0
  6 31  1  0  0  0  0
  6 35  1  1  0  0  0
  7  8  1  0  0  0  0
  7 33  1  0  0  0  0
  7 34  1  0  0  0  0
  8  9  1  0  0  0  0
  8 32  1  6  0  0  0
  9 10  2  0  0  0  0
  9 31  1  0  0  0  0
 10 11  1  0  0  0  0
 10 12  1  0  0  0  0
 12 13  1  0  0  0  0
 12 29  1  0  0  0  0
 13 14  2  0  0  0  0
 13 22  1  0  0  0  0
 14 15  1  0  0  0  0
 14 28  1  0  0  0  0
 15 16  2  0  0  0  0
 16 17  1  0  0  0  0
 16 27  1  0  0  0  0
 17 18  2  0  0  0  0
 17 22  1  0  0  0  0
 18 19  1  0  0  0  0
 18 26  1  0  0  0  0
 19 20  2  0  0  0  0
 19 25  1  0  0  0  0
 20 21  1  0  0  0  0
 20 24  1  0  0  0  0
 21 22  2  0  0  0  0
 21 23  1  0  0  0  0
 29 30  2  0  0  0  0
 29 31  1  0  0  0  0
M  CHG  1  11  -1
M  END
>  <MODEL>
       1

$$$$
best_conformers_39.pdb
 OpenBabel01292518153D

 40 44  0  0  1  0  0  0  0  0999 V2000
   -4.4240   -1.3240  -25.4850 C   0  0  0  0  0  0  0  0  0  0  0  0
   -5.9180   -1.4560  -25.2140 C   0  0  0  0  0  0  0  0  0  0  0  0
   -6.6890   -0.5210  -25.3790 O   0  0  0  0  0  0  0  0  0  0  0  0
   -6.3660   -2.6840  -24.8120 N   0  0  0  0  0  0  0  0  0  0  0  0
   -5.5430   -3.7560  -24.2200 C   0  0  0  0  0  0  0  0  0  0  0  0
   -6.6060   -4.5810  -23.4750 C   0  0  2  0  0  0  0  0  0  0  0  0
   -7.8170   -4.4100  -24.4030 C   0  0  0  0  0  0  0  0  0  0  0  0
   -7.7570   -2.8720  -24.3220 C   0  0  1  0  0  0  0  0  0  0  0  0
   -7.7250   -2.6980  -22.8570 C   0  0  0  0  0  0  0  0  0  0  0  0
   -7.5800   -1.5670  -21.9900 C   0  0  0  0  0  0  0  0  0  0  0  0
   -7.9860   -0.4340  -22.0760 O   0  5  0  0  0  0  0  0  0  0  0  0
   -6.7570   -2.0590  -20.9440 N   0  0  0  0  0  0  0  0  0  0  0  0
   -6.1370   -1.2130  -19.9890 C   0  0  0  0  0  0  0  0  0  0  0  0
   -6.5230   -1.2960  -18.6780 C   0  0  0  0  0  0  0  0  0  0  0  0
   -6.0220   -0.5190  -17.6850 N   0  0  0  0  0  0  0  0  0  0  0  0
   -5.1050    0.3600  -18.0120 C   0  0  0  0  0  0  0  0  0  0  0  0
   -4.6060    0.5440  -19.3330 C   0  0  0  0  0  0  0  0  0  0  0  0
   -3.6060    1.5080  -19.6340 C   0  0  0  0  0  0  0  0  0  0  0  0
   -3.1390    1.6540  -20.9120 C   0  0  0  0  0  0  0  0  0  0  0  0
   -3.6490    0.8350  -21.9460 C   0  0  0  0  0  0  0  0  0  0  0  0
   -4.6140   -0.1040  -21.6830 C   0  0  0  0  0  0  0  0  0  0  0  0
   -5.1310   -0.2670  -20.3660 C   0  0  0  0  0  0  0  0  0  0  0  0
   -4.9960   -0.7190  -22.4960 H   0  0  0  0  0  0  0  0  0  0  0  0
   -3.2850    0.9670  -22.9610 H   0  0  0  0  0  0  0  0  0  0  0  0
   -2.3830    2.4000  -21.1430 H   0  0  0  0  0  0  0  0  0  0  0  0
   -3.2290    2.1290  -18.8260 H   0  0  0  0  0  0  0  0  0  0  0  0
   -4.7100    0.9750  -17.2020 H   0  0  0  0  0  0  0  0  0  0  0  0
   -7.2770   -2.0160  -18.3790 H   0  0  0  0  0  0  0  0  0  0  0  0
   -6.3440   -3.3780  -21.1800 C   0  0  0  0  0  0  0  0  0  0  0  0
   -5.5260   -3.9990  -20.5460 O   0  0  0  0  0  0  0  0  0  0  0  0
   -7.0460   -3.7620  -22.3210 N   0  0  0  0  0  0  0  0  0  0  0  0
   -8.4480   -2.2450  -24.8860 H   0  0  0  0  0  0  0  0  0  0  0  0
   -7.6270   -4.7790  -25.4160 H   0  0  0  0  0  0  0  0  0  0  0  0
   -8.7310   -4.8370  -23.9940 H   0  0  0  0  0  0  0  0  0  0  0  0
   -6.3030   -5.5750  -23.1670 H   0  0  0  0  0  0  0  0  0  0  0  0
   -4.8450   -3.3620  -23.4790 H   0  0  0  0  0  0  0  0  0  0  0  0
   -5.0290   -4.3380  -24.9910 H   0  0  0  0  0  0  0  0  0  0  0  0
   -4.0480   -2.1040  -26.1580 H   0  0  0  0  0  0  0  0  0  0  0  0
   -4.2930   -0.3470  -25.9490 H   0  0  0  0  0  0  0  0  0  0  0  0
   -3.8070   -1.3690  -24.5770 H   0  0  0  0  0  0  0  0  0  0  0  0
  1  2  1  0  0  0  0
  1 38  1  0  0  0  0
  1 39  1  0  0  0  0
  1 40  1  0  0  0  0
  2  3  2  0  0  0  0
  2  4  1  0  0  0  0
  4  5  1  0  0  0  0
  4  8  1  0  0  0  0
  5  6  1  0  0  0  0
  5 36  1  0  0  0  0
  5 37  1  0  0  0  0
  6  7  1  0  0  0  0
  6 31  1  0  0  0  0
  6 35  1  1  0  0  0
  7  8  1  0  0  0  0
  7 33  1  0  0  0  0
  7 34  1  0  0  0  0
  8  9  1  0  0  0  0
  8 32  1  6  0  0  0
  9 10  2  0  0  0  0
  9 31  1  0  0  0  0
 10 11  1  0  0  0  0
 10 12  1  0  0  0  0
 12 13  1  0  0  0  0
 12 29  1  0  0  0  0
 13 14  2  0  0  0  0
 13 22  1  0  0  0  0
 14 15  1  0  0  0  0
 14 28  1  0  0  0  0
 15 16  2  0  0  0  0
 16 17  1  0  0  0  0
 16 27  1  0  0  0  0
 17 18  2  0  0  0  0
 17 22  1  0  0  0  0
 18 19  1  0  0  0  0
 18 26  1  0  0  0  0
 19 20  2  0  0  0  0
 19 25  1  0  0  0  0
 20 21  1  0  0  0  0
 20 24  1  0  0  0  0
 21 22  2  0  0  0  0
 21 23  1  0  0  0  0
 29 30  2  0  0  0  0
 29 31  1  0  0  0  0
M  CHG  1  11  -1
M  END
>  <MODEL>
       2

$$$$
best_conformers_39.pdb
 OpenBabel01292518153D

 40 44  0  0  1  0  0  0  0  0999 V2000
   -8.7890   -7.0370  -24.7830 C   0  0  0  0  0  0  0  0  0  0  0  0
   -7.5860   -6.1590  -24.5330 C   0  0  0  0  0  0  0  0  0  0  0  0
   -6.4690   -6.6280  -24.3650 O   0  0  0  0  0  0  0  0  0  0  0  0
   -7.8240   -4.8220  -24.4280 N   0  0  0  0  0  0  0  0  0  0  0  0
   -9.1170   -4.1160  -24.3180 C   0  0  0  0  0  0  0  0  0  0  0  0
   -8.6500   -2.7140  -23.8760 C   0  0  2  0  0  0  0  0  0  0  0  0
   -7.3420   -2.5820  -24.6890 C   0  0  0  0  0  0  0  0  0  0  0  0
   -6.7530   -3.8800  -24.0680 C   0  0  1  0  0  0  0  0  0  0  0  0
   -6.8820   -3.5250  -22.6410 C   0  0  0  0  0  0  0  0  0  0  0  0
   -5.9960   -3.0890  -21.6030 C   0  0  0  0  0  0  0  0  0  0  0  0
   -4.8610   -3.4010  -21.3350 O   0  5  0  0  0  0  0  0  0  0  0  0
   -6.7350   -2.0960  -20.9130 N   0  0  0  0  0  0  0  0  0  0  0  0
   -6.1490   -1.2060  -19.9780 C   0  0  0  0  0  0  0  0  0  0  0  0
   -6.5330   -1.2830  -18.6660 C   0  0  0  0  0  0  0  0  0  0  0  0
   -6.0270   -0.5140  -17.6720 N   0  0  0  0  0  0  0  0  0  0  0  0
   -5.1030    0.3580  -18.0060 C   0  0  0  0  0  0  0  0  0  0  0  0
   -4.6100    0.5430  -19.3320 C   0  0  0  0  0  0  0  0  0  0  0  0
   -3.6170    1.5160  -19.6320 C   0  0  0  0  0  0  0  0  0  0  0  0
   -3.1800    1.6900  -20.9170 C   0  0  0  0  0  0  0  0  0  0  0  0
   -3.7220    0.9090  -21.9600 C   0  0  0  0  0  0  0  0  0  0  0  0
   -4.6850   -0.0340  -21.6980 C   0  0  0  0  0  0  0  0  0  0  0  0
   -5.1470   -0.2530  -20.3640 C   0  0  0  0  0  0  0  0  0  0  0  0
   -5.0970   -0.6120  -22.5190 H   0  0  0  0  0  0  0  0  0  0  0  0
   -3.3780    1.0570  -22.9800 H   0  0  0  0  0  0  0  0  0  0  0  0
   -2.4250    2.4400  -21.1430 H   0  0  0  0  0  0  0  0  0  0  0  0
   -3.2300    2.1210  -18.8190 H   0  0  0  0  0  0  0  0  0  0  0  0
   -4.6990    0.9710  -17.2010 H   0  0  0  0  0  0  0  0  0  0  0  0
   -7.2900   -2.0090  -18.3740 H   0  0  0  0  0  0  0  0  0  0  0  0
   -7.9960   -1.8880  -21.4930 C   0  0  0  0  0  0  0  0  0  0  0  0
   -8.7910   -1.0350  -21.1870 O   0  0  0  0  0  0  0  0  0  0  0  0
   -8.0780   -2.8500  -22.5020 N   0  0  0  0  0  0  0  0  0  0  0  0
   -5.7880   -4.2760  -24.3800 H   0  0  0  0  0  0  0  0  0  0  0  0
   -6.7770   -1.7060  -24.3750 H   0  0  0  0  0  0  0  0  0  0  0  0
   -7.4620   -2.6250  -25.7740 H   0  0  0  0  0  0  0  0  0  0  0  0
   -9.3990   -1.9290  -23.9020 H   0  0  0  0  0  0  0  0  0  0  0  0
   -9.8000   -4.5810  -23.5960 H   0  0  0  0  0  0  0  0  0  0  0  0
   -9.6220   -4.0470  -25.2920 H   0  0  0  0  0  0  0  0  0  0  0  0
   -8.4340   -8.0290  -25.0600 H   0  0  0  0  0  0  0  0  0  0  0  0
   -9.4940   -6.6560  -25.5310 H   0  0  0  0  0  0  0  0  0  0  0  0
   -9.3030   -7.0940  -23.8210 H   0  0  0  0  0  0  0  0  0  0  0  0
  1  2  1  0  0  0  0
  1 38  1  0  0  0  0
  1 39  1  0  0  0  0
  1 40  1  0  0  0  0
  2  3  2  0  0  0  0
  2  4  1  0  0  0  0
  4  5  1  0  0  0  0
  4  8  1  0  0  0  0
  5  6  1  0  0  0  0
  5 36  1  0  0  0  0
  5 37  1  0  0  0  0
  6  7  1  0  0  0  0
  6 31  1  0  0  0  0
  6 35  1  6  0  0  0
  7  8  1  0  0  0  0
  7 33  1  0  0  0  0
  7 34  1  0  0  0  0
  8  9  1  0  0  0  0
  8 32  1  6  0  0  0
  9 10  2  0  0  0  0
  9 31  1  0  0  0  0
 10 11  1  0  0  0  0
 10 12  1  0  0  0  0
 12 13  1  0  0  0  0
 12 29  1  0  0  0  0
 13 14  2  0  0  0  0
 13 22  1  0  0  0  0
 14 15  1  0  0  0  0
 14 28  1  0  0  0  0
 15 16  2  0  0  0  0
 16 17  1  0  0  0  0
 16 27  1  0  0  0  0
 17 18  2  0  0  0  0
 17 22  1  0  0  0  0
 18 19  1  0  0  0  0
 18 26  1  0  0  0  0
 19 20  2  0  0  0  0
 19 25  1  0  0  0  0
 20 21  1  0  0  0  0
 20 24  1  0  0  0  0
 21 22  2  0  0  0  0
 21 23  1  0  0  0  0
 29 30  2  0  0  0  0
 29 31  1  0  0  0  0
M  CHG  1  11  -1
M  END
>  <MODEL>
       3

$$$$
best_conformers_39.pdb
 OpenBabel01292518153D

 40 44  0  0  1  0  0  0  0  0999 V2000
   -7.6000   -7.4110  -23.0960 C   0  0  0  0  0  0  0  0  0  0  0  0
   -8.3220   -6.4300  -23.9960 C   0  0  0  0  0  0  0  0  0  0  0  0
   -9.2880   -6.7470  -24.6720 O   0  0  0  0  0  0  0  0  0  0  0  0
   -7.8390   -5.1660  -24.0180 N   0  0  0  0  0  0  0  0  0  0  0  0
   -8.6130   -4.0640  -24.6170 C   0  0  0  0  0  0  0  0  0  0  0  0
   -7.7310   -2.8560  -24.2600 C   0  0  2  0  0  0  0  0  0  0  0  0
   -6.3220   -3.4690  -24.4660 C   0  0  0  0  0  0  0  0  0  0  0  0
   -6.6040   -4.6170  -23.4490 C   0  0  1  0  0  0  0  0  0  0  0  0
   -6.9710   -3.7940  -22.2930 C   0  0  0  0  0  0  0  0  0  0  0  0
   -6.3450   -3.4020  -21.0780 C   0  0  0  0  0  0  0  0  0  0  0  0
   -5.5820   -3.9860  -20.3370 O   0  5  0  0  0  0  0  0  0  0  0  0
   -6.7670   -2.0520  -20.9110 N   0  0  0  0  0  0  0  0  0  0  0  0
   -6.1560   -1.1800  -19.9790 C   0  0  0  0  0  0  0  0  0  0  0  0
   -6.5250   -1.2850  -18.6650 C   0  0  0  0  0  0  0  0  0  0  0  0
   -6.0260   -0.5160  -17.6700 N   0  0  0  0  0  0  0  0  0  0  0  0
   -5.1090    0.3620  -18.0050 C   0  0  0  0  0  0  0  0  0  0  0  0
   -4.6080    0.5480  -19.3290 C   0  0  0  0  0  0  0  0  0  0  0  0
   -3.6060    1.5090  -19.6290 C   0  0  0  0  0  0  0  0  0  0  0  0
   -3.1400    1.6510  -20.9060 C   0  0  0  0  0  0  0  0  0  0  0  0
   -3.6460    0.8380  -21.9440 C   0  0  0  0  0  0  0  0  0  0  0  0
   -4.6160   -0.0970  -21.6840 C   0  0  0  0  0  0  0  0  0  0  0  0
   -5.1350   -0.2530  -20.3640 C   0  0  0  0  0  0  0  0  0  0  0  0
   -5.0000   -0.7060  -22.4990 H   0  0  0  0  0  0  0  0  0  0  0  0
   -3.2780    0.9650  -22.9590 H   0  0  0  0  0  0  0  0  0  0  0  0
   -2.3830    2.3990  -21.1330 H   0  0  0  0  0  0  0  0  0  0  0  0
   -3.2340    2.1290  -18.8180 H   0  0  0  0  0  0  0  0  0  0  0  0
   -4.7090    0.9790  -17.2020 H   0  0  0  0  0  0  0  0  0  0  0  0
   -7.2710   -2.0260  -18.3890 H   0  0  0  0  0  0  0  0  0  0  0  0
   -7.5570   -1.6130  -21.9860 C   0  0  0  0  0  0  0  0  0  0  0  0
   -7.9580   -0.4900  -22.1740 O   0  0  0  0  0  0  0  0  0  0  0  0
   -7.7370   -2.7480  -22.7690 N   0  0  0  0  0  0  0  0  0  0  0  0
   -5.8350   -5.3650  -23.2550 H   0  0  0  0  0  0  0  0  0  0  0  0
   -5.5380   -2.7930  -24.1140 H   0  0  0  0  0  0  0  0  0  0  0  0
   -6.1240   -3.8300  -25.4780 H   0  0  0  0  0  0  0  0  0  0  0  0
   -8.0020   -1.9120  -24.7270 H   0  0  0  0  0  0  0  0  0  0  0  0
   -9.6180   -4.0320  -24.1840 H   0  0  0  0  0  0  0  0  0  0  0  0
   -8.6990   -4.2150  -25.7010 H   0  0  0  0  0  0  0  0  0  0  0  0
   -7.4390   -7.0260  -22.0840 H   0  0  0  0  0  0  0  0  0  0  0  0
   -6.6110   -7.6500  -23.4960 H   0  0  0  0  0  0  0  0  0  0  0  0
   -8.2240   -8.2990  -23.0630 H   0  0  0  0  0  0  0  0  0  0  0  0
  1  2  1  0  0  0  0
  1 38  1  0  0  0  0
  1 39  1  0  0  0  0
  1 40  1  0  0  0  0
  2  3  2  0  0  0  0
  2  4  1  0  0  0  0
  4  5  1  0  0  0  0
  4  8  1  0  0  0  0
  5  6  1  0  0  0  0
  5 36  1  0  0  0  0
  5 37  1  0  0  0  0
  6  7  1  0  0  0  0
  6 31  1  0  0  0  0
  6 35  1  6  0  0  0
  7  8  1  0  0  0  0
  7 33  1  0  0  0  0
  7 34  1  0  0  0  0
  8  9  1  0  0  0  0
  8 32  1  1  0  0  0
  9 10  2  0  0  0  0
  9 31  1  0  0  0  0
 10 11  1  0  0  0  0
 10 12  1  0  0  0  0
 12 13  1  0  0  0  0
 12 29  1  0  0  0  0
 13 14  2  0  0  0  0
 13 22  1  0  0  0  0
 14 15  1  0  0  0  0
 14 28  1  0  0  0  0
 15 16  2  0  0  0  0
 16 17  1  0  0  0  0
 16 27  1  0  0  0  0
 17 18  2  0  0  0  0
 17 22  1  0  0  0  0
 18 19  1  0  0  0  0
 18 26  1  0  0  0  0
 19 20  2  0  0  0  0
 19 25  1  0  0  0  0
 20 21  1  0  0  0  0
 20 24  1  0  0  0  0
 21 22  2  0  0  0  0
 21 23  1  0  0  0  0
 29 30  2  0  0  0  0
 29 31  1  0  0  0  0
M  CHG  1  11  -1
M  END
>  <MODEL>
       4

$$$$
best_conformers_39.pdb
 OpenBabel01292518153D

 40 44  0  0  1  0  0  0  0  0999 V2000
   -6.3960   -6.8020  -24.2680 C   0  0  0  0  0  0  0  0  0  0  0  0
   -7.7730   -6.1800  -24.4530 C   0  0  0  0  0  0  0  0  0  0  0  0
   -8.7870   -6.8420  -24.6240 O   0  0  0  0  0  0  0  0  0  0  0  0
   -7.8260   -4.8190  -24.4050 N   0  0  0  0  0  0  0  0  0  0  0  0
   -9.1160   -4.1060  -24.3180 C   0  0  0  0  0  0  0  0  0  0  0  0
   -8.6460   -2.7160  -23.8700 C   0  0  2  0  0  0  0  0  0  0  0  0
   -7.3390   -2.5860  -24.6810 C   0  0  0  0  0  0  0  0  0  0  0  0
   -6.7490   -3.8810  -24.0520 C   0  0  1  0  0  0  0  0  0  0  0  0
   -6.8890   -3.5130  -22.6330 C   0  0  0  0  0  0  0  0  0  0  0  0
   -5.9910   -3.0770  -21.6100 C   0  0  0  0  0  0  0  0  0  0  0  0
   -4.8480   -3.3810  -21.3600 O   0  5  0  0  0  0  0  0  0  0  0  0
   -6.7350   -2.0940  -20.9090 N   0  0  0  0  0  0  0  0  0  0  0  0
   -6.1450   -1.2060  -19.9780 C   0  0  0  0  0  0  0  0  0  0  0  0
   -6.5300   -1.2830  -18.6660 C   0  0  0  0  0  0  0  0  0  0  0  0
   -6.0240   -0.5110  -17.6750 N   0  0  0  0  0  0  0  0  0  0  0  0
   -5.1010    0.3590  -18.0070 C   0  0  0  0  0  0  0  0  0  0  0  0
   -4.6080    0.5450  -19.3310 C   0  0  0  0  0  0  0  0  0  0  0  0
   -3.6160    1.5160  -19.6340 C   0  0  0  0  0  0  0  0  0  0  0  0
   -3.1790    1.6910  -20.9190 C   0  0  0  0  0  0  0  0  0  0  0  0
   -3.7230    0.9070  -21.9620 C   0  0  0  0  0  0  0  0  0  0  0  0
   -4.6860   -0.0350  -21.6950 C   0  0  0  0  0  0  0  0  0  0  0  0
   -5.1470   -0.2540  -20.3640 C   0  0  0  0  0  0  0  0  0  0  0  0
   -5.0970   -0.6180  -22.5140 H   0  0  0  0  0  0  0  0  0  0  0  0
   -3.3800    1.0550  -22.9830 H   0  0  0  0  0  0  0  0  0  0  0  0
   -2.4250    2.4410  -21.1490 H   0  0  0  0  0  0  0  0  0  0  0  0
   -3.2270    2.1240  -18.8220 H   0  0  0  0  0  0  0  0  0  0  0  0
   -4.7000    0.9720  -17.1990 H   0  0  0  0  0  0  0  0  0  0  0  0
   -7.2860   -2.0060  -18.3730 H   0  0  0  0  0  0  0  0  0  0  0  0
   -7.9950   -1.8850  -21.4890 C   0  0  0  0  0  0  0  0  0  0  0  0
   -8.7850   -1.0240  -21.1870 O   0  0  0  0  0  0  0  0  0  0  0  0
   -8.0830   -2.8390  -22.4990 N   0  0  0  0  0  0  0  0  0  0  0  0
   -5.7590   -4.2270  -24.3620 H   0  0  0  0  0  0  0  0  0  0  0  0
   -6.7780   -1.7080  -24.3680 H   0  0  0  0  0  0  0  0  0  0  0  0
   -7.4580   -2.6220  -25.7660 H   0  0  0  0  0  0  0  0  0  0  0  0
   -9.3890   -1.9310  -23.8980 H   0  0  0  0  0  0  0  0  0  0  0  0
   -9.7930   -4.6000  -23.6130 H   0  0  0  0  0  0  0  0  0  0  0  0
   -9.5950   -4.0790  -25.3060 H   0  0  0  0  0  0  0  0  0  0  0  0
   -6.5450   -7.8780  -24.2650 H   0  0  0  0  0  0  0  0  0  0  0  0
   -5.9260   -6.5040  -23.3210 H   0  0  0  0  0  0  0  0  0  0  0  0
   -5.7020   -6.5180  -25.0700 H   0  0  0  0  0  0  0  0  0  0  0  0
  1  2  1  0  0  0  0
  1 38  1  0  0  0  0
  1 39  1  0  0  0  0
  1 40  1  0  0  0  0
  2  3  2  0  0  0  0
  2  4  1  0  0  0  0
  4  5  1  0  0  0  0
  4  8  1  0  0  0  0
  5  6  1  0  0  0  0
  5 36  1  0  0  0  0
  5 37  1  0  0  0  0
  6  7  1  0  0  0  0
  6 31  1  0  0  0  0
  6 35  1  6  0  0  0
  7  8  1  0  0  0  0
  7 33  1  0  0  0  0
  7 34  1  0  0  0  0
  8  9  1  0  0  0  0
  8 32  1  6  0  0  0
  9 10  2  0  0  0  0
  9 31  1  0  0  0  0
 10 11  1  0  0  0  0
 10 12  1  0  0  0  0
 12 13  1  0  0  0  0
 12 29  1  0  0  0  0
 13 14  2  0  0  0  0
 13 22  1  0  0  0  0
 14 15  1  0  0  0  0
 14 28  1  0  0  0  0
 15 16  2  0  0  0  0
 16 17  1  0  0  0  0
 16 27  1  0  0  0  0
 17 18  2  0  0  0  0
 17 22  1  0  0  0  0
 18 19  1  0  0  0  0
 18 26  1  0  0  0  0
 19 20  2  0  0  0  0
 19 25  1  0  0  0  0
 20 21  1  0  0  0  0
 20 24  1  0  0  0  0
 21 22  2  0  0  0  0
 21 23  1  0  0  0  0
 29 30  2  0  0  0  0
 29 31  1  0  0  0  0
M  CHG  1  11  -1
M  END
>  <MODEL>
       5

$$$$
