best_conformers_78.pdb
 OpenBabel01292518153D

 56 60  0  0  1  0  0  0  0  0999 V2000
   -6.0940   -7.3700  -26.0650 C   0  0  0  0  0  0  0  0  0  0  0  0
   -6.6470   -6.0700  -26.3730 N   0  0  0  0  0  0  0  0  0  0  0  0
   -5.9190   -4.9650  -26.0930 C   0  0  0  0  0  0  0  0  0  0  0  0
   -4.8180   -5.0250  -25.5640 O   0  0  0  0  0  0  0  0  0  0  0  0
   -6.6120   -3.6410  -26.4090 C   0  0  0  0  0  0  0  0  0  0  0  0
   -7.5440   -3.2980  -25.3480 N   0  0  0  0  0  0  0  0  0  0  0  0
   -7.0670   -2.4980  -24.2240 C   0  0  0  0  0  0  0  0  0  0  0  0
   -7.8800   -2.7220  -22.9240 C   0  0  2  0  0  0  0  0  0  0  0  0
   -7.5300   -1.5610  -21.9910 C   0  0  0  0  0  0  0  0  0  0  0  0
   -7.8420   -0.3910  -22.1180 O   0  0  0  0  0  0  0  0  0  0  0  0
   -6.7580   -2.0470  -20.9640 N   0  0  0  0  0  0  0  0  0  0  0  0
   -6.1680   -1.1950  -20.0140 C   0  0  0  0  0  0  0  0  0  0  0  0
   -6.5420   -1.3160  -18.7020 C   0  0  0  0  0  0  0  0  0  0  0  0
   -6.0580   -0.5590  -17.6910 N   0  0  0  0  0  0  0  0  0  0  0  0
   -5.1440    0.3280  -18.0150 C   0  0  0  0  0  0  0  0  0  0  0  0
   -4.6460    0.5280  -19.3350 C   0  0  0  0  0  0  0  0  0  0  0  0
   -3.6490    1.4990  -19.6070 C   0  0  0  0  0  0  0  0  0  0  0  0
   -3.1570    1.6500  -20.8740 C   0  0  0  0  0  0  0  0  0  0  0  0
   -3.6370    0.8410  -21.9280 C   0  0  0  0  0  0  0  0  0  0  0  0
   -4.6110   -0.0960  -21.6940 C   0  0  0  0  0  0  0  0  0  0  0  0
   -5.1520   -0.2650  -20.3840 C   0  0  0  0  0  0  0  0  0  0  0  0
   -4.9790   -0.6970  -22.5200 H   0  0  0  0  0  0  0  0  0  0  0  0
   -3.2300    0.9660  -22.9270 H   0  0  0  0  0  0  0  0  0  0  0  0
   -2.3900    2.3910  -21.0760 H   0  0  0  0  0  0  0  0  0  0  0  0
   -3.2910    2.1110  -18.7850 H   0  0  0  0  0  0  0  0  0  0  0  0
   -4.7430    0.9410  -17.2090 H   0  0  0  0  0  0  0  0  0  0  0  0
   -7.2990   -2.0550  -18.4440 H   0  0  0  0  0  0  0  0  0  0  0  0
   -6.3690   -3.4320  -21.1130 C   0  0  0  0  0  0  0  0  0  0  0  0
   -7.4320   -3.9690  -22.0700 C   0  0  2  0  0  0  0  0  0  0  0  0
   -6.9790   -5.2030  -22.8300 C   0  0  0  0  0  0  0  0  0  0  0  0
   -7.7430   -5.5000  -23.5530 H   0  0  0  0  0  0  0  0  0  0  0  0
   -6.8090   -6.0390  -22.1410 H   0  0  0  0  0  0  0  0  0  0  0  0
   -6.0480   -5.0010  -23.3690 H   0  0  0  0  0  0  0  0  0  0  0  0
   -8.3120   -4.2260  -21.4710 H   0  0  0  0  0  0  0  0  0  0  0  0
   -6.3580   -3.9330  -20.1410 H   0  0  0  0  0  0  0  0  0  0  0  0
   -5.3570   -3.5280  -21.5420 H   0  0  0  0  0  0  0  0  0  0  0  0
   -9.3640   -2.7620  -23.2400 C   0  0  0  0  0  0  0  0  0  0  0  0
  -10.3130   -2.5070  -22.2360 C   0  0  0  0  0  0  0  0  0  0  0  0
  -11.6340   -2.8790  -22.4490 C   0  0  0  0  0  0  0  0  0  0  0  0
  -12.8030   -2.7930  -21.1690 Cl  0  0  0  0  0  0  0  0  0  0  0  0
  -12.0630   -3.4050  -23.6650 C   0  0  0  0  0  0  0  0  0  0  0  0
  -11.1530   -3.5290  -24.6920 C   0  0  0  0  0  0  0  0  0  0  0  0
   -9.8090   -3.2390  -24.4750 C   0  0  0  0  0  0  0  0  0  0  0  0
   -8.8550   -3.6070  -25.5640 C   0  0  0  0  0  0  0  0  0  0  0  0
   -9.2210   -4.2000  -26.5770 O   0  0  0  0  0  0  0  0  0  0  0  0
  -11.4370   -3.8730  -25.6820 H   0  0  0  0  0  0  0  0  0  0  0  0
  -13.0880   -3.7480  -23.7660 H   0  0  0  0  0  0  0  0  0  0  0  0
  -10.0110   -2.0680  -21.2890 H   0  0  0  0  0  0  0  0  0  0  0  0
   -6.0030   -2.7230  -24.0450 H   0  0  0  0  0  0  0  0  0  0  0  0
   -7.1300   -1.4320  -24.4830 H   0  0  0  0  0  0  0  0  0  0  0  0
   -5.8780   -2.8410  -26.5090 H   0  0  0  0  0  0  0  0  0  0  0  0
   -7.1860   -3.7220  -27.3350 H   0  0  0  0  0  0  0  0  0  0  0  0
   -7.5980   -5.9630  -26.6790 H   0  0  0  0  0  0  0  0  0  0  0  0
   -6.8290   -8.1380  -26.2980 H   0  0  0  0  0  0  0  0  0  0  0  0
   -5.8270   -7.4330  -25.0050 H   0  0  0  0  0  0  0  0  0  0  0  0
   -5.1940   -7.5500  -26.6570 H   0  0  0  0  0  0  0  0  0  0  0  0
  1  2  1  0  0  0  0
  1 54  1  0  0  0  0
  1 55  1  0  0  0  0
  1 56  1  0  0  0  0
  2  3  1  0  0  0  0
  2 53  1  0  0  0  0
  3  4  2  0  0  0  0
  3  5  1  0  0  0  0
  5  6  1  0  0  0  0
  5 51  1  0  0  0  0
  5 52  1  0  0  0  0
  6  7  1  0  0  0  0
  6 44  1  0  0  0  0
  7  8  1  0  0  0  0
  7 49  1  0  0  0  0
  7 50  1  0  0  0  0
  8  9  1  1  0  0  0
  8 29  1  0  0  0  0
  8 37  1  0  0  0  0
  9 10  2  0  0  0  0
  9 11  1  0  0  0  0
 11 12  1  0  0  0  0
 11 28  1  0  0  0  0
 12 13  2  0  0  0  0
 12 21  1  0  0  0  0
 13 14  1  0  0  0  0
 13 27  1  0  0  0  0
 14 15  2  0  0  0  0
 15 16  1  0  0  0  0
 15 26  1  0  0  0  0
 16 17  2  0  0  0  0
 16 21  1  0  0  0  0
 17 18  1  0  0  0  0
 17 25  1  0  0  0  0
 18 19  2  0  0  0  0
 18 24  1  0  0  0  0
 19 20  1  0  0  0  0
 19 23  1  0  0  0  0
 20 21  2  0  0  0  0
 20 22  1  0  0  0  0
 28 29  1  0  0  0  0
 28 35  1  0  0  0  0
 28 36  1  0  0  0  0
 29 30  1  0  0  0  0
 29 34  1  1  0  0  0
 30 31  1  0  0  0  0
 30 32  1  0  0  0  0
 30 33  1  0  0  0  0
 37 38  2  0  0  0  0
 37 43  1  0  0  0  0
 38 39  1  0  0  0  0
 38 48  1  0  0  0  0
 39 40  1  0  0  0  0
 39 41  2  0  0  0  0
 41 42  1  0  0  0  0
 41 47  1  0  0  0  0
 42 43  2  0  0  0  0
 42 46  1  0  0  0  0
 43 44  1  0  0  0  0
 44 45  2  0  0  0  0
M  END
>  <MODEL>
       1

$$$$
best_conformers_78.pdb
 OpenBabel01292518153D

 56 60  0  0  1  0  0  0  0  0999 V2000
   -6.4550   -1.8000  -29.4490 C   0  0  0  0  0  0  0  0  0  0  0  0
   -6.8100   -2.8430  -28.5070 N   0  0  0  0  0  0  0  0  0  0  0  0
   -6.2270   -2.7750  -27.2780 C   0  0  0  0  0  0  0  0  0  0  0  0
   -5.4460   -1.8890  -26.9680 O   0  0  0  0  0  0  0  0  0  0  0  0
   -6.6090   -3.8750  -26.2960 C   0  0  0  0  0  0  0  0  0  0  0  0
   -7.5470   -3.3770  -25.3080 N   0  0  0  0  0  0  0  0  0  0  0  0
   -7.0680   -2.4990  -24.2460 C   0  0  0  0  0  0  0  0  0  0  0  0
   -7.8640   -2.7160  -22.9420 C   0  0  2  0  0  0  0  0  0  0  0  0
   -7.5120   -1.5570  -22.0030 C   0  0  0  0  0  0  0  0  0  0  0  0
   -7.8120   -0.3880  -22.1420 O   0  0  0  0  0  0  0  0  0  0  0  0
   -6.7350   -2.0450  -20.9780 N   0  0  0  0  0  0  0  0  0  0  0  0
   -6.1580   -1.1970  -20.0150 C   0  0  0  0  0  0  0  0  0  0  0  0
   -6.5430   -1.3190  -18.7070 C   0  0  0  0  0  0  0  0  0  0  0  0
   -6.0600   -0.5630  -17.6940 N   0  0  0  0  0  0  0  0  0  0  0  0
   -5.1470    0.3270  -18.0100 C   0  0  0  0  0  0  0  0  0  0  0  0
   -4.6430    0.5300  -19.3270 C   0  0  0  0  0  0  0  0  0  0  0  0
   -3.6470    1.5030  -19.6000 C   0  0  0  0  0  0  0  0  0  0  0  0
   -3.1530    1.6530  -20.8650 C   0  0  0  0  0  0  0  0  0  0  0  0
   -3.6300    0.8420  -21.9190 C   0  0  0  0  0  0  0  0  0  0  0  0
   -4.6040   -0.0940  -21.6860 C   0  0  0  0  0  0  0  0  0  0  0  0
   -5.1460   -0.2610  -20.3770 C   0  0  0  0  0  0  0  0  0  0  0  0
   -4.9740   -0.6980  -22.5110 H   0  0  0  0  0  0  0  0  0  0  0  0
   -3.2250    0.9680  -22.9180 H   0  0  0  0  0  0  0  0  0  0  0  0
   -2.3870    2.3960  -21.0670 H   0  0  0  0  0  0  0  0  0  0  0  0
   -3.2940    2.1180  -18.7770 H   0  0  0  0  0  0  0  0  0  0  0  0
   -4.7540    0.9420  -17.2010 H   0  0  0  0  0  0  0  0  0  0  0  0
   -7.2990   -2.0590  -18.4460 H   0  0  0  0  0  0  0  0  0  0  0  0
   -6.3490   -3.4320  -21.1300 C   0  0  0  0  0  0  0  0  0  0  0  0
   -7.4280   -3.9600  -22.0770 C   0  0  2  0  0  0  0  0  0  0  0  0
   -7.0090   -5.2250  -22.8070 C   0  0  0  0  0  0  0  0  0  0  0  0
   -6.0940   -5.0500  -23.3850 H   0  0  0  0  0  0  0  0  0  0  0  0
   -7.7940   -5.5540  -23.4910 H   0  0  0  0  0  0  0  0  0  0  0  0
   -6.8100   -6.0280  -22.0880 H   0  0  0  0  0  0  0  0  0  0  0  0
   -8.3110   -4.1780  -21.4630 H   0  0  0  0  0  0  0  0  0  0  0  0
   -6.3380   -3.9360  -20.1590 H   0  0  0  0  0  0  0  0  0  0  0  0
   -5.3370   -3.5340  -21.5600 H   0  0  0  0  0  0  0  0  0  0  0  0
   -9.3500   -2.7430  -23.2730 C   0  0  0  0  0  0  0  0  0  0  0  0
  -10.2930   -2.5140  -22.2560 C   0  0  0  0  0  0  0  0  0  0  0  0
  -11.6130   -2.8950  -22.4450 C   0  0  0  0  0  0  0  0  0  0  0  0
  -12.7780   -2.8170  -21.1490 Cl  0  0  0  0  0  0  0  0  0  0  0  0
  -12.0470   -3.4080  -23.6610 C   0  0  0  0  0  0  0  0  0  0  0  0
  -11.1580   -3.4920  -24.7120 C   0  0  0  0  0  0  0  0  0  0  0  0
   -9.8170   -3.1720  -24.5200 C   0  0  0  0  0  0  0  0  0  0  0  0
   -8.8710   -3.4430  -25.6370 C   0  0  0  0  0  0  0  0  0  0  0  0
   -9.2500   -3.7590  -26.7650 O   0  0  0  0  0  0  0  0  0  0  0  0
  -11.4570   -3.8370  -25.6940 H   0  0  0  0  0  0  0  0  0  0  0  0
  -13.0680   -3.7480  -23.7480 H   0  0  0  0  0  0  0  0  0  0  0  0
  -10.0020   -2.0720  -21.3080 H   0  0  0  0  0  0  0  0  0  0  0  0
   -7.1730   -1.4390  -24.5240 H   0  0  0  0  0  0  0  0  0  0  0  0
   -5.9950   -2.6750  -24.1020 H   0  0  0  0  0  0  0  0  0  0  0  0
   -5.7070   -4.2230  -25.7820 H   0  0  0  0  0  0  0  0  0  0  0  0
   -7.0640   -4.7260  -26.8110 H   0  0  0  0  0  0  0  0  0  0  0  0
   -7.7240   -3.2750  -28.5670 H   0  0  0  0  0  0  0  0  0  0  0  0
   -7.0030   -1.9410  -30.3810 H   0  0  0  0  0  0  0  0  0  0  0  0
   -6.6800   -0.8140  -29.0280 H   0  0  0  0  0  0  0  0  0  0  0  0
   -5.3800   -1.8560  -29.6460 H   0  0  0  0  0  0  0  0  0  0  0  0
  1  2  1  0  0  0  0
  1 54  1  0  0  0  0
  1 55  1  0  0  0  0
  1 56  1  0  0  0  0
  2  3  1  0  0  0  0
  2 53  1  0  0  0  0
  3  4  2  0  0  0  0
  3  5  1  0  0  0  0
  5  6  1  0  0  0  0
  5 51  1  0  0  0  0
  5 52  1  0  0  0  0
  6  7  1  0  0  0  0
  6 44  1  0  0  0  0
  7  8  1  0  0  0  0
  7 49  1  0  0  0  0
  7 50  1  0  0  0  0
  8  9  1  1  0  0  0
  8 29  1  0  0  0  0
  8 37  1  0  0  0  0
  9 10  2  0  0  0  0
  9 11  1  0  0  0  0
 11 12  1  0  0  0  0
 11 28  1  0  0  0  0
 12 13  2  0  0  0  0
 12 21  1  0  0  0  0
 13 14  1  0  0  0  0
 13 27  1  0  0  0  0
 14 15  2  0  0  0  0
 15 16  1  0  0  0  0
 15 26  1  0  0  0  0
 16 17  2  0  0  0  0
 16 21  1  0  0  0  0
 17 18  1  0  0  0  0
 17 25  1  0  0  0  0
 18 19  2  0  0  0  0
 18 24  1  0  0  0  0
 19 20  1  0  0  0  0
 19 23  1  0  0  0  0
 20 21  2  0  0  0  0
 20 22  1  0  0  0  0
 28 29  1  0  0  0  0
 28 35  1  0  0  0  0
 28 36  1  0  0  0  0
 29 30  1  0  0  0  0
 29 34  1  1  0  0  0
 30 31  1  0  0  0  0
 30 32  1  0  0  0  0
 30 33  1  0  0  0  0
 37 38  2  0  0  0  0
 37 43  1  0  0  0  0
 38 39  1  0  0  0  0
 38 48  1  0  0  0  0
 39 40  1  0  0  0  0
 39 41  2  0  0  0  0
 41 42  1  0  0  0  0
 41 47  1  0  0  0  0
 42 43  2  0  0  0  0
 42 46  1  0  0  0  0
 43 44  1  0  0  0  0
 44 45  2  0  0  0  0
M  END
>  <MODEL>
       2

$$$$
