best_conformers_77.pdb
 OpenBabel01292518153D

 55 60  0  0  1  0  0  0  0  0999 V2000
   -6.9900   -5.1910  -22.8850 C   0  0  0  0  0  0  0  0  0  0  0  0
   -7.4900   -3.9770  -22.1040 C   0  0  1  0  0  0  0  0  0  0  0  0
   -6.4750   -3.4560  -21.0700 C   0  0  0  0  0  0  0  0  0  0  0  0
   -6.7760   -2.0410  -20.9670 N   0  0  0  0  0  0  0  0  0  0  0  0
   -6.1720   -1.1900  -20.0090 C   0  0  0  0  0  0  0  0  0  0  0  0
   -6.5310   -1.2950  -18.6880 C   0  0  0  0  0  0  0  0  0  0  0  0
   -6.0260   -0.5340  -17.6880 N   0  0  0  0  0  0  0  0  0  0  0  0
   -5.1100    0.3490  -18.0170 C   0  0  0  0  0  0  0  0  0  0  0  0
   -4.6180    0.5400  -19.3410 C   0  0  0  0  0  0  0  0  0  0  0  0
   -3.6130    1.5020  -19.6360 C   0  0  0  0  0  0  0  0  0  0  0  0
   -3.1410    1.6470  -20.9120 C   0  0  0  0  0  0  0  0  0  0  0  0
   -3.6460    0.8310  -21.9500 C   0  0  0  0  0  0  0  0  0  0  0  0
   -4.6180   -0.1010  -21.6910 C   0  0  0  0  0  0  0  0  0  0  0  0
   -5.1490   -0.2570  -20.3780 C   0  0  0  0  0  0  0  0  0  0  0  0
   -4.9980   -0.7180  -22.4990 H   0  0  0  0  0  0  0  0  0  0  0  0
   -3.2740    0.9570  -22.9620 H   0  0  0  0  0  0  0  0  0  0  0  0
   -2.3850    2.3950  -21.1360 H   0  0  0  0  0  0  0  0  0  0  0  0
   -3.2390    2.1220  -18.8250 H   0  0  0  0  0  0  0  0  0  0  0  0
   -4.7110    0.9660  -17.2120 H   0  0  0  0  0  0  0  0  0  0  0  0
   -7.2840   -2.0250  -18.3920 H   0  0  0  0  0  0  0  0  0  0  0  0
   -7.5390   -1.5520  -22.0020 C   0  0  0  0  0  0  0  0  0  0  0  0
   -7.8520   -0.3850  -22.1280 O   0  0  0  0  0  0  0  0  0  0  0  0
   -7.9030   -2.7130  -22.9450 C   0  0  1  0  0  0  0  0  0  0  0  0
   -7.1150   -2.4870  -24.2500 C   0  0  0  0  0  0  0  0  0  0  0  0
   -7.5790   -3.2910  -25.3720 N   0  0  0  0  0  0  0  0  0  0  0  0
   -6.6020   -3.6890  -26.3810 C   0  0  0  0  0  0  0  0  0  0  0  0
   -6.1420   -5.1180  -26.2600 C   0  0  0  0  0  0  0  0  0  0  0  0
   -6.8380   -6.2370  -26.5500 C   0  0  0  0  0  0  0  0  0  0  0  0
   -6.0600   -7.3190  -26.2570 O   0  0  0  0  0  0  0  0  0  0  0  0
   -4.9130   -6.7830  -25.8020 C   0  0  0  0  0  0  0  0  0  0  0  0
   -4.8890   -5.4910  -25.7800 N   0  0  0  0  0  0  0  0  0  0  0  0
   -4.1510   -7.4900  -25.4940 H   0  0  0  0  0  0  0  0  0  0  0  0
   -7.8190   -6.4360  -26.9560 H   0  0  0  0  0  0  0  0  0  0  0  0
   -5.7380   -3.0250  -26.2910 H   0  0  0  0  0  0  0  0  0  0  0  0
   -7.0760   -3.5380  -27.3560 H   0  0  0  0  0  0  0  0  0  0  0  0
   -8.9000   -3.5690  -25.6090 C   0  0  0  0  0  0  0  0  0  0  0  0
   -9.2690   -4.1260  -26.6360 O   0  0  0  0  0  0  0  0  0  0  0  0
   -9.8480   -3.1620  -24.5170 C   0  0  0  0  0  0  0  0  0  0  0  0
  -11.2210   -3.3080  -24.7290 C   0  0  0  0  0  0  0  0  0  0  0  0
  -12.1040   -3.0110  -23.7020 C   0  0  0  0  0  0  0  0  0  0  0  0
  -11.6220   -2.5390  -22.4950 C   0  0  0  0  0  0  0  0  0  0  0  0
  -12.5270   -2.2250  -21.5610 F   0  0  0  0  0  0  0  0  0  0  0  0
  -10.2770   -2.4010  -22.2480 C   0  0  0  0  0  0  0  0  0  0  0  0
   -9.3770   -2.7170  -23.2730 C   0  0  0  0  0  0  0  0  0  0  0  0
   -9.9320   -2.0750  -21.2740 H   0  0  0  0  0  0  0  0  0  0  0  0
  -13.1790   -3.1380  -23.7410 H   0  0  0  0  0  0  0  0  0  0  0  0
  -11.5550   -3.6530  -25.7060 H   0  0  0  0  0  0  0  0  0  0  0  0
   -7.1980   -1.4120  -24.4790 H   0  0  0  0  0  0  0  0  0  0  0  0
   -6.0620   -2.7480  -24.0850 H   0  0  0  0  0  0  0  0  0  0  0  0
   -5.4440   -3.6150  -21.4200 H   0  0  0  0  0  0  0  0  0  0  0  0
   -6.5570   -3.9230  -20.0850 H   0  0  0  0  0  0  0  0  0  0  0  0
   -8.4130   -4.2550  -21.5760 H   0  0  0  0  0  0  0  0  0  0  0  0
   -6.8250   -6.0380  -22.2120 H   0  0  0  0  0  0  0  0  0  0  0  0
   -7.7120   -5.4970  -23.6500 H   0  0  0  0  0  0  0  0  0  0  0  0
   -6.0420   -4.9820  -23.3930 H   0  0  0  0  0  0  0  0  0  0  0  0
  1  2  1  0  0  0  0
  1 53  1  0  0  0  0
  1 54  1  0  0  0  0
  1 55  1  0  0  0  0
  2  3  1  0  0  0  0
  2 23  1  0  0  0  0
  2 52  1  1  0  0  0
  3  4  1  0  0  0  0
  3 50  1  0  0  0  0
  3 51  1  0  0  0  0
  4  5  1  0  0  0  0
  4 21  1  0  0  0  0
  5  6  2  0  0  0  0
  5 14  1  0  0  0  0
  6  7  1  0  0  0  0
  6 20  1  0  0  0  0
  7  8  2  0  0  0  0
  8  9  1  0  0  0  0
  8 19  1  0  0  0  0
  9 10  2  0  0  0  0
  9 14  1  0  0  0  0
 10 11  1  0  0  0  0
 10 18  1  0  0  0  0
 11 12  2  0  0  0  0
 11 17  1  0  0  0  0
 12 13  1  0  0  0  0
 12 16  1  0  0  0  0
 13 14  2  0  0  0  0
 13 15  1  0  0  0  0
 21 22  2  0  0  0  0
 23 21  1  1  0  0  0
 23 24  1  0  0  0  0
 23 44  1  0  0  0  0
 24 25  1  0  0  0  0
 24 48  1  0  0  0  0
 24 49  1  0  0  0  0
 25 26  1  0  0  0  0
 25 36  1  0  0  0  0
 26 27  1  0  0  0  0
 26 34  1  0  0  0  0
 26 35  1  0  0  0  0
 27 28  2  0  0  0  0
 27 31  1  0  0  0  0
 28 29  1  0  0  0  0
 28 33  1  0  0  0  0
 29 30  1  0  0  0  0
 30 31  2  0  0  0  0
 30 32  1  0  0  0  0
 36 37  2  0  0  0  0
 36 38  1  0  0  0  0
 38 39  2  0  0  0  0
 38 44  1  0  0  0  0
 39 40  1  0  0  0  0
 39 47  1  0  0  0  0
 40 41  2  0  0  0  0
 40 46  1  0  0  0  0
 41 42  1  0  0  0  0
 41 43  1  0  0  0  0
 43 44  2  0  0  0  0
 43 45  1  0  0  0  0
M  END
>  <MODEL>
       1

$$$$
best_conformers_77.pdb
 OpenBabel01292518153D

 55 60  0  0  1  0  0  0  0  0999 V2000
   -6.9570   -5.1910  -22.8890 C   0  0  0  0  0  0  0  0  0  0  0  0
   -7.4710   -3.9810  -22.1060 C   0  0  1  0  0  0  0  0  0  0  0  0
   -6.4580   -3.4560  -21.0710 C   0  0  0  0  0  0  0  0  0  0  0  0
   -6.7700   -2.0440  -20.9640 N   0  0  0  0  0  0  0  0  0  0  0  0
   -6.1700   -1.1910  -20.0070 C   0  0  0  0  0  0  0  0  0  0  0  0
   -6.5330   -1.2970  -18.6880 C   0  0  0  0  0  0  0  0  0  0  0  0
   -6.0280   -0.5350  -17.6880 N   0  0  0  0  0  0  0  0  0  0  0  0
   -5.1120    0.3470  -18.0180 C   0  0  0  0  0  0  0  0  0  0  0  0
   -4.6190    0.5390  -19.3420 C   0  0  0  0  0  0  0  0  0  0  0  0
   -3.6150    1.5000  -19.6350 C   0  0  0  0  0  0  0  0  0  0  0  0
   -3.1410    1.6460  -20.9110 C   0  0  0  0  0  0  0  0  0  0  0  0
   -3.6450    0.8310  -21.9500 C   0  0  0  0  0  0  0  0  0  0  0  0
   -4.6180   -0.1010  -21.6930 C   0  0  0  0  0  0  0  0  0  0  0  0
   -5.1500   -0.2580  -20.3790 C   0  0  0  0  0  0  0  0  0  0  0  0
   -4.9960   -0.7160  -22.5040 H   0  0  0  0  0  0  0  0  0  0  0  0
   -3.2710    0.9580  -22.9620 H   0  0  0  0  0  0  0  0  0  0  0  0
   -2.3860    2.3950  -21.1330 H   0  0  0  0  0  0  0  0  0  0  0  0
   -3.2430    2.1200  -18.8230 H   0  0  0  0  0  0  0  0  0  0  0  0
   -4.7130    0.9630  -17.2130 H   0  0  0  0  0  0  0  0  0  0  0  0
   -7.2850   -2.0290  -18.3950 H   0  0  0  0  0  0  0  0  0  0  0  0
   -7.5300   -1.5560  -22.0000 C   0  0  0  0  0  0  0  0  0  0  0  0
   -7.8500   -0.3920  -22.1240 O   0  0  0  0  0  0  0  0  0  0  0  0
   -7.8860   -2.7180  -22.9470 C   0  0  1  0  0  0  0  0  0  0  0  0
   -7.1060   -2.4940  -24.2560 C   0  0  0  0  0  0  0  0  0  0  0  0
   -7.5680   -3.3250  -25.3660 N   0  0  0  0  0  0  0  0  0  0  0  0
   -6.5940   -3.7380  -26.3720 C   0  0  0  0  0  0  0  0  0  0  0  0
   -6.1810   -5.1830  -26.2930 C   0  0  0  0  0  0  0  0  0  0  0  0
   -5.0000   -5.7330  -25.9080 C   0  0  0  0  0  0  0  0  0  0  0  0
   -5.1200   -7.0900  -25.9700 O   0  0  0  0  0  0  0  0  0  0  0  0
   -6.3750   -7.2950  -26.4050 C   0  0  0  0  0  0  0  0  0  0  0  0
   -7.0490   -6.2140  -26.6230 N   0  0  0  0  0  0  0  0  0  0  0  0
   -6.6880   -8.3250  -26.5090 H   0  0  0  0  0  0  0  0  0  0  0  0
   -4.0410   -5.3730  -25.5700 H   0  0  0  0  0  0  0  0  0  0  0  0
   -5.7140   -3.1020  -26.2350 H   0  0  0  0  0  0  0  0  0  0  0  0
   -7.0430   -3.5410  -27.3510 H   0  0  0  0  0  0  0  0  0  0  0  0
   -8.9000   -3.5240  -25.6320 C   0  0  0  0  0  0  0  0  0  0  0  0
   -9.3040   -3.9840  -26.6910 O   0  0  0  0  0  0  0  0  0  0  0  0
   -9.8320   -3.1570  -24.5190 C   0  0  0  0  0  0  0  0  0  0  0  0
  -11.2000   -3.3280  -24.7310 C   0  0  0  0  0  0  0  0  0  0  0  0
  -12.0830   -3.0520  -23.7010 C   0  0  0  0  0  0  0  0  0  0  0  0
  -11.6070   -2.5730  -22.4930 C   0  0  0  0  0  0  0  0  0  0  0  0
  -12.5070   -2.2600  -21.5530 F   0  0  0  0  0  0  0  0  0  0  0  0
  -10.2620   -2.4210  -22.2490 C   0  0  0  0  0  0  0  0  0  0  0  0
   -9.3610   -2.7240  -23.2740 C   0  0  0  0  0  0  0  0  0  0  0  0
   -9.9150   -2.0930  -21.2770 H   0  0  0  0  0  0  0  0  0  0  0  0
  -13.1530   -3.2050  -23.7460 H   0  0  0  0  0  0  0  0  0  0  0  0
  -11.5230   -3.6710  -25.7130 H   0  0  0  0  0  0  0  0  0  0  0  0
   -6.0480   -2.7350  -24.0890 H   0  0  0  0  0  0  0  0  0  0  0  0
   -7.2060   -1.4200  -24.4890 H   0  0  0  0  0  0  0  0  0  0  0  0
   -5.4260   -3.6000  -21.4240 H   0  0  0  0  0  0  0  0  0  0  0  0
   -6.5370   -3.9280  -20.0870 H   0  0  0  0  0  0  0  0  0  0  0  0
   -8.3920   -4.2660  -21.5800 H   0  0  0  0  0  0  0  0  0  0  0  0
   -7.6740   -5.5080  -23.6540 H   0  0  0  0  0  0  0  0  0  0  0  0
   -6.0110   -4.9620  -23.3900 H   0  0  0  0  0  0  0  0  0  0  0  0
   -6.7780   -6.0380  -22.2180 H   0  0  0  0  0  0  0  0  0  0  0  0
  1  2  1  0  0  0  0
  1 53  1  0  0  0  0
  1 54  1  0  0  0  0
  1 55  1  0  0  0  0
  2  3  1  0  0  0  0
  2 23  1  0  0  0  0
  2 52  1  1  0  0  0
  3  4  1  0  0  0  0
  3 50  1  0  0  0  0
  3 51  1  0  0  0  0
  4  5  1  0  0  0  0
  4 21  1  0  0  0  0
  5  6  2  0  0  0  0
  5 14  1  0  0  0  0
  6  7  1  0  0  0  0
  6 20  1  0  0  0  0
  7  8  2  0  0  0  0
  8  9  1  0  0  0  0
  8 19  1  0  0  0  0
  9 10  2  0  0  0  0
  9 14  1  0  0  0  0
 10 11  1  0  0  0  0
 10 18  1  0  0  0  0
 11 12  2  0  0  0  0
 11 17  1  0  0  0  0
 12 13  1  0  0  0  0
 12 16  1  0  0  0  0
 13 14  2  0  0  0  0
 13 15  1  0  0  0  0
 21 22  2  0  0  0  0
 23 21  1  1  0  0  0
 23 24  1  0  0  0  0
 23 44  1  0  0  0  0
 24 25  1  0  0  0  0
 24 48  1  0  0  0  0
 24 49  1  0  0  0  0
 25 26  1  0  0  0  0
 25 36  1  0  0  0  0
 26 27  1  0  0  0  0
 26 34  1  0  0  0  0
 26 35  1  0  0  0  0
 27 28  2  0  0  0  0
 27 31  1  0  0  0  0
 28 29  1  0  0  0  0
 28 33  1  0  0  0  0
 29 30  1  0  0  0  0
 30 31  2  0  0  0  0
 30 32  1  0  0  0  0
 36 37  2  0  0  0  0
 36 38  1  0  0  0  0
 38 39  2  0  0  0  0
 38 44  1  0  0  0  0
 39 40  1  0  0  0  0
 39 47  1  0  0  0  0
 40 41  2  0  0  0  0
 40 46  1  0  0  0  0
 41 42  1  0  0  0  0
 41 43  1  0  0  0  0
 43 44  2  0  0  0  0
 43 45  1  0  0  0  0
M  END
>  <MODEL>
       2

$$$$
best_conformers_77.pdb
 OpenBabel01292518153D

 55 60  0  0  1  0  0  0  0  0999 V2000
   -6.9850   -5.2000  -22.8460 C   0  0  0  0  0  0  0  0  0  0  0  0
   -7.4650   -3.9760  -22.0730 C   0  0  1  0  0  0  0  0  0  0  0  0
   -6.4360   -3.4510  -21.0640 C   0  0  0  0  0  0  0  0  0  0  0  0
   -6.7510   -2.0430  -20.9530 N   0  0  0  0  0  0  0  0  0  0  0  0
   -6.1550   -1.1970  -19.9980 C   0  0  0  0  0  0  0  0  0  0  0  0
   -6.5300   -1.3070  -18.6850 C   0  0  0  0  0  0  0  0  0  0  0  0
   -6.0400   -0.5390  -17.6830 N   0  0  0  0  0  0  0  0  0  0  0  0
   -5.1230    0.3430  -18.0150 C   0  0  0  0  0  0  0  0  0  0  0  0
   -4.6280    0.5350  -19.3380 C   0  0  0  0  0  0  0  0  0  0  0  0
   -3.6250    1.4980  -19.6290 C   0  0  0  0  0  0  0  0  0  0  0  0
   -3.1460    1.6440  -20.9010 C   0  0  0  0  0  0  0  0  0  0  0  0
   -3.6430    0.8330  -21.9480 C   0  0  0  0  0  0  0  0  0  0  0  0
   -4.6160   -0.0990  -21.6980 C   0  0  0  0  0  0  0  0  0  0  0  0
   -5.1460   -0.2600  -20.3800 C   0  0  0  0  0  0  0  0  0  0  0  0
   -4.9870   -0.7100  -22.5170 H   0  0  0  0  0  0  0  0  0  0  0  0
   -3.2570    0.9590  -22.9570 H   0  0  0  0  0  0  0  0  0  0  0  0
   -2.3880    2.3930  -21.1190 H   0  0  0  0  0  0  0  0  0  0  0  0
   -3.2580    2.1160  -18.8140 H   0  0  0  0  0  0  0  0  0  0  0  0
   -4.7130    0.9600  -17.2150 H   0  0  0  0  0  0  0  0  0  0  0  0
   -7.2910   -2.0380  -18.4100 H   0  0  0  0  0  0  0  0  0  0  0  0
   -7.5040   -1.5530  -21.9890 C   0  0  0  0  0  0  0  0  0  0  0  0
   -7.8180   -0.3860  -22.1160 O   0  0  0  0  0  0  0  0  0  0  0  0
   -7.8520   -2.7150  -22.9290 C   0  0  1  0  0  0  0  0  0  0  0  0
   -7.0750   -2.5060  -24.2320 C   0  0  0  0  0  0  0  0  0  0  0  0
   -7.5190   -3.4280  -25.2580 N   0  0  0  0  0  0  0  0  0  0  0  0
   -6.5020   -3.8770  -26.1930 C   0  0  0  0  0  0  0  0  0  0  0  0
   -6.1870   -2.8550  -27.2430 C   0  0  0  0  0  0  0  0  0  0  0  0
   -6.8180   -2.7390  -28.4240 C   0  0  0  0  0  0  0  0  0  0  0  0
   -6.2940   -1.6860  -29.1040 O   0  0  0  0  0  0  0  0  0  0  0  0
   -5.3680   -1.1900  -28.2550 C   0  0  0  0  0  0  0  0  0  0  0  0
   -5.2520   -1.8240  -27.1370 N   0  0  0  0  0  0  0  0  0  0  0  0
   -4.8420   -0.3050  -28.5870 H   0  0  0  0  0  0  0  0  0  0  0  0
   -7.6420   -3.2850  -28.8440 H   0  0  0  0  0  0  0  0  0  0  0  0
   -6.8910   -4.7810  -26.6700 H   0  0  0  0  0  0  0  0  0  0  0  0
   -5.6030   -4.1330  -25.6160 H   0  0  0  0  0  0  0  0  0  0  0  0
   -8.8450   -3.5400  -25.5980 C   0  0  0  0  0  0  0  0  0  0  0  0
   -9.2220   -3.9600  -26.6880 O   0  0  0  0  0  0  0  0  0  0  0  0
   -9.8020   -3.1530  -24.5140 C   0  0  0  0  0  0  0  0  0  0  0  0
  -11.1740   -3.3050  -24.7240 C   0  0  0  0  0  0  0  0  0  0  0  0
  -12.0510   -3.0300  -23.6910 C   0  0  0  0  0  0  0  0  0  0  0  0
  -11.5570   -2.5360  -22.4960 C   0  0  0  0  0  0  0  0  0  0  0  0
  -12.4680   -2.2530  -21.5560 F   0  0  0  0  0  0  0  0  0  0  0  0
  -10.2110   -2.3860  -22.2500 C   0  0  0  0  0  0  0  0  0  0  0  0
   -9.3190   -2.7230  -23.2720 C   0  0  0  0  0  0  0  0  0  0  0  0
   -9.8520   -2.0380  -21.2820 H   0  0  0  0  0  0  0  0  0  0  0  0
  -13.1160   -3.2190  -23.6990 H   0  0  0  0  0  0  0  0  0  0  0  0
  -11.4950   -3.6530  -25.7000 H   0  0  0  0  0  0  0  0  0  0  0  0
   -7.2410   -1.4660  -24.5520 H   0  0  0  0  0  0  0  0  0  0  0  0
   -6.0020   -2.6590  -24.0630 H   0  0  0  0  0  0  0  0  0  0  0  0
   -6.4940   -3.9240  -20.0810 H   0  0  0  0  0  0  0  0  0  0  0  0
   -5.4140   -3.5830  -21.4490 H   0  0  0  0  0  0  0  0  0  0  0  0
   -8.3830   -4.2450  -21.5290 H   0  0  0  0  0  0  0  0  0  0  0  0
   -6.7890   -6.0370  -22.1710 H   0  0  0  0  0  0  0  0  0  0  0  0
   -6.0500   -4.9850  -23.3750 H   0  0  0  0  0  0  0  0  0  0  0  0
   -7.7250   -5.5220  -23.5820 H   0  0  0  0  0  0  0  0  0  0  0  0
  1  2  1  0  0  0  0
  1 53  1  0  0  0  0
  1 54  1  0  0  0  0
  1 55  1  0  0  0  0
  2  3  1  0  0  0  0
  2 23  1  0  0  0  0
  2 52  1  1  0  0  0
  3  4  1  0  0  0  0
  3 50  1  0  0  0  0
  3 51  1  0  0  0  0
  4  5  1  0  0  0  0
  4 21  1  0  0  0  0
  5  6  2  0  0  0  0
  5 14  1  0  0  0  0
  6  7  1  0  0  0  0
  6 20  1  0  0  0  0
  7  8  2  0  0  0  0
  8  9  1  0  0  0  0
  8 19  1  0  0  0  0
  9 10  2  0  0  0  0
  9 14  1  0  0  0  0
 10 11  1  0  0  0  0
 10 18  1  0  0  0  0
 11 12  2  0  0  0  0
 11 17  1  0  0  0  0
 12 13  1  0  0  0  0
 12 16  1  0  0  0  0
 13 14  2  0  0  0  0
 13 15  1  0  0  0  0
 21 22  2  0  0  0  0
 23 21  1  1  0  0  0
 23 24  1  0  0  0  0
 23 44  1  0  0  0  0
 24 25  1  0  0  0  0
 24 48  1  0  0  0  0
 24 49  1  0  0  0  0
 25 26  1  0  0  0  0
 25 36  1  0  0  0  0
 26 27  1  0  0  0  0
 26 34  1  0  0  0  0
 26 35  1  0  0  0  0
 27 28  2  0  0  0  0
 27 31  1  0  0  0  0
 28 29  1  0  0  0  0
 28 33  1  0  0  0  0
 29 30  1  0  0  0  0
 30 31  2  0  0  0  0
 30 32  1  0  0  0  0
 36 37  2  0  0  0  0
 36 38  1  0  0  0  0
 38 39  2  0  0  0  0
 38 44  1  0  0  0  0
 39 40  1  0  0  0  0
 39 47  1  0  0  0  0
 40 41  2  0  0  0  0
 40 46  1  0  0  0  0
 41 42  1  0  0  0  0
 41 43  1  0  0  0  0
 43 44  2  0  0  0  0
 43 45  1  0  0  0  0
M  END
>  <MODEL>
       3

$$$$
