best_conformers_53.pdb
 OpenBabel01292518153D

 59 63  0  0  1  0  0  0  0  0999 V2000
   -7.5800   -0.5560  -29.0980 C   0  0  0  0  0  0  0  0  0  0  0  0
   -6.7010   -1.7530  -29.4410 C   0  0  0  0  0  0  0  0  0  0  0  0
   -6.9070   -2.8240  -28.4820 N   0  0  0  0  0  0  0  0  0  0  0  0
   -6.2340   -2.7490  -27.2990 C   0  0  0  0  0  0  0  0  0  0  0  0
   -5.4220   -1.8730  -27.0410 O   0  0  0  0  0  0  0  0  0  0  0  0
   -6.5740   -3.8500  -26.2990 C   0  0  0  0  0  0  0  0  0  0  0  0
   -7.5190   -3.3690  -25.3090 N   0  0  0  0  0  0  0  0  0  0  0  0
   -7.0530   -2.4930  -24.2420 C   0  0  0  0  0  0  0  0  0  0  0  0
   -7.8530   -2.7150  -22.9430 C   0  0  2  0  0  0  0  0  0  0  0  0
   -7.5080   -1.5570  -22.0000 C   0  0  0  0  0  0  0  0  0  0  0  0
   -7.8030   -0.3880  -22.1380 O   0  0  0  0  0  0  0  0  0  0  0  0
   -6.7320   -2.0480  -20.9740 N   0  0  0  0  0  0  0  0  0  0  0  0
   -6.1570   -1.1970  -20.0130 C   0  0  0  0  0  0  0  0  0  0  0  0
   -6.5410   -1.3160  -18.7040 C   0  0  0  0  0  0  0  0  0  0  0  0
   -6.0560   -0.5610  -17.6920 N   0  0  0  0  0  0  0  0  0  0  0  0
   -5.1430    0.3290  -18.0080 C   0  0  0  0  0  0  0  0  0  0  0  0
   -4.6400    0.5320  -19.3250 C   0  0  0  0  0  0  0  0  0  0  0  0
   -3.6450    1.5050  -19.6000 C   0  0  0  0  0  0  0  0  0  0  0  0
   -3.1510    1.6550  -20.8660 C   0  0  0  0  0  0  0  0  0  0  0  0
   -3.6300    0.8420  -21.9180 C   0  0  0  0  0  0  0  0  0  0  0  0
   -4.6030   -0.0950  -21.6830 C   0  0  0  0  0  0  0  0  0  0  0  0
   -5.1440   -0.2610  -20.3750 C   0  0  0  0  0  0  0  0  0  0  0  0
   -4.9760   -0.6990  -22.5060 H   0  0  0  0  0  0  0  0  0  0  0  0
   -3.2280    0.9680  -22.9190 H   0  0  0  0  0  0  0  0  0  0  0  0
   -2.3860    2.3980  -21.0690 H   0  0  0  0  0  0  0  0  0  0  0  0
   -3.2910    2.1200  -18.7780 H   0  0  0  0  0  0  0  0  0  0  0  0
   -4.7540    0.9450  -17.1990 H   0  0  0  0  0  0  0  0  0  0  0  0
   -7.2960   -2.0560  -18.4390 H   0  0  0  0  0  0  0  0  0  0  0  0
   -6.3450   -3.4350  -21.1260 C   0  0  0  0  0  0  0  0  0  0  0  0
   -7.4160   -3.9620  -22.0820 C   0  0  2  0  0  0  0  0  0  0  0  0
   -6.9900   -5.2240  -22.8150 C   0  0  0  0  0  0  0  0  0  0  0  0
   -7.7730   -5.5510  -23.5040 H   0  0  0  0  0  0  0  0  0  0  0  0
   -6.7930   -6.0300  -22.0980 H   0  0  0  0  0  0  0  0  0  0  0  0
   -6.0740   -5.0470  -23.3910 H   0  0  0  0  0  0  0  0  0  0  0  0
   -8.3030   -4.1840  -21.4760 H   0  0  0  0  0  0  0  0  0  0  0  0
   -6.3420   -3.9420  -20.1550 H   0  0  0  0  0  0  0  0  0  0  0  0
   -5.3280   -3.5410  -21.5440 H   0  0  0  0  0  0  0  0  0  0  0  0
   -9.3360   -2.7450  -23.2810 C   0  0  0  0  0  0  0  0  0  0  0  0
  -10.2830   -2.5160  -22.2690 C   0  0  0  0  0  0  0  0  0  0  0  0
  -11.6020   -2.8940  -22.4570 C   0  0  0  0  0  0  0  0  0  0  0  0
  -12.7800   -2.8030  -21.1710 Cl  0  0  0  0  0  0  0  0  0  0  0  0
  -12.0270   -3.4170  -23.6720 C   0  0  0  0  0  0  0  0  0  0  0  0
  -11.1340   -3.5090  -24.7190 C   0  0  0  0  0  0  0  0  0  0  0  0
   -9.7930   -3.1870  -24.5260 C   0  0  0  0  0  0  0  0  0  0  0  0
   -8.8400   -3.4520  -25.6400 C   0  0  0  0  0  0  0  0  0  0  0  0
   -9.2110   -3.7710  -26.7680 O   0  0  0  0  0  0  0  0  0  0  0  0
  -11.4350   -3.8610  -25.6980 H   0  0  0  0  0  0  0  0  0  0  0  0
  -13.0500   -3.7510  -23.7720 H   0  0  0  0  0  0  0  0  0  0  0  0
  -10.0010   -2.0720  -21.3220 H   0  0  0  0  0  0  0  0  0  0  0  0
   -7.1640   -1.4330  -24.5150 H   0  0  0  0  0  0  0  0  0  0  0  0
   -5.9800   -2.6610  -24.0900 H   0  0  0  0  0  0  0  0  0  0  0  0
   -5.6620   -4.1650  -25.7870 H   0  0  0  0  0  0  0  0  0  0  0  0
   -7.0070   -4.7200  -26.8020 H   0  0  0  0  0  0  0  0  0  0  0  0
   -7.8190   -3.2700  -28.4540 H   0  0  0  0  0  0  0  0  0  0  0  0
   -5.6420   -1.4790  -29.3770 H   0  0  0  0  0  0  0  0  0  0  0  0
   -6.8880   -2.1420  -30.4470 H   0  0  0  0  0  0  0  0  0  0  0  0
   -7.5280    0.2170  -29.8670 H   0  0  0  0  0  0  0  0  0  0  0  0
   -7.2430   -0.1400  -28.1420 H   0  0  0  0  0  0  0  0  0  0  0  0
   -8.6320   -0.8530  -28.9910 H   0  0  0  0  0  0  0  0  0  0  0  0
  1  2  1  0  0  0  0
  1 57  1  0  0  0  0
  1 58  1  0  0  0  0
  1 59  1  0  0  0  0
  2  3  1  0  0  0  0
  2 55  1  0  0  0  0
  2 56  1  0  0  0  0
  3  4  1  0  0  0  0
  3 54  1  0  0  0  0
  4  5  2  0  0  0  0
  4  6  1  0  0  0  0
  6  7  1  0  0  0  0
  6 52  1  0  0  0  0
  6 53  1  0  0  0  0
  7  8  1  0  0  0  0
  7 45  1  0  0  0  0
  8  9  1  0  0  0  0
  8 50  1  0  0  0  0
  8 51  1  0  0  0  0
  9 10  1  1  0  0  0
  9 30  1  0  0  0  0
  9 38  1  0  0  0  0
 10 11  2  0  0  0  0
 10 12  1  0  0  0  0
 12 13  1  0  0  0  0
 12 29  1  0  0  0  0
 13 14  2  0  0  0  0
 13 22  1  0  0  0  0
 14 15  1  0  0  0  0
 14 28  1  0  0  0  0
 15 16  2  0  0  0  0
 16 17  1  0  0  0  0
 16 27  1  0  0  0  0
 17 18  2  0  0  0  0
 17 22  1  0  0  0  0
 18 19  1  0  0  0  0
 18 26  1  0  0  0  0
 19 20  2  0  0  0  0
 19 25  1  0  0  0  0
 20 21  1  0  0  0  0
 20 24  1  0  0  0  0
 21 22  2  0  0  0  0
 21 23  1  0  0  0  0
 29 30  1  0  0  0  0
 29 36  1  0  0  0  0
 29 37  1  0  0  0  0
 30 31  1  0  0  0  0
 30 35  1  1  0  0  0
 31 32  1  0  0  0  0
 31 33  1  0  0  0  0
 31 34  1  0  0  0  0
 38 39  2  0  0  0  0
 38 44  1  0  0  0  0
 39 40  1  0  0  0  0
 39 49  1  0  0  0  0
 40 41  1  0  0  0  0
 40 42  2  0  0  0  0
 42 43  1  0  0  0  0
 42 48  1  0  0  0  0
 43 44  2  0  0  0  0
 43 47  1  0  0  0  0
 44 45  1  0  0  0  0
 45 46  2  0  0  0  0
M  END
>  <MODEL>
       1

$$$$
best_conformers_53.pdb
 OpenBabel01292518153D

 59 63  0  0  1  0  0  0  0  0999 V2000
   -5.5270   -7.6440  -28.3220 C   0  0  0  0  0  0  0  0  0  0  0  0
   -6.8410   -7.2380  -27.6510 C   0  0  0  0  0  0  0  0  0  0  0  0
   -7.0120   -5.7970  -27.5090 N   0  0  0  0  0  0  0  0  0  0  0  0
   -6.3500   -5.1510  -26.5040 C   0  0  0  0  0  0  0  0  0  0  0  0
   -5.5640   -5.7060  -25.7550 O   0  0  0  0  0  0  0  0  0  0  0  0
   -6.6670   -3.6550  -26.4340 C   0  0  0  0  0  0  0  0  0  0  0  0
   -7.5790   -3.3530  -25.3440 N   0  0  0  0  0  0  0  0  0  0  0  0
   -7.1070   -2.5100  -24.2510 C   0  0  0  0  0  0  0  0  0  0  0  0
   -7.8960   -2.7300  -22.9400 C   0  0  2  0  0  0  0  0  0  0  0  0
   -7.5410   -1.5600  -22.0080 C   0  0  0  0  0  0  0  0  0  0  0  0
   -7.8610   -0.3940  -22.1360 O   0  0  0  0  0  0  0  0  0  0  0  0
   -6.7730   -2.0460  -20.9750 N   0  0  0  0  0  0  0  0  0  0  0  0
   -6.1710   -1.1990  -20.0220 C   0  0  0  0  0  0  0  0  0  0  0  0
   -6.5420   -1.3160  -18.7090 C   0  0  0  0  0  0  0  0  0  0  0  0
   -6.0550   -0.5580  -17.6990 N   0  0  0  0  0  0  0  0  0  0  0  0
   -5.1420    0.3300  -18.0200 C   0  0  0  0  0  0  0  0  0  0  0  0
   -4.6430    0.5280  -19.3400 C   0  0  0  0  0  0  0  0  0  0  0  0
   -3.6430    1.4960  -19.6160 C   0  0  0  0  0  0  0  0  0  0  0  0
   -3.1580    1.6470  -20.8840 C   0  0  0  0  0  0  0  0  0  0  0  0
   -3.6410    0.8390  -21.9350 C   0  0  0  0  0  0  0  0  0  0  0  0
   -4.6130   -0.0970  -21.6970 C   0  0  0  0  0  0  0  0  0  0  0  0
   -5.1520   -0.2660  -20.3880 C   0  0  0  0  0  0  0  0  0  0  0  0
   -4.9800   -0.7010  -22.5200 H   0  0  0  0  0  0  0  0  0  0  0  0
   -3.2380    0.9630  -22.9360 H   0  0  0  0  0  0  0  0  0  0  0  0
   -2.3910    2.3880  -21.0890 H   0  0  0  0  0  0  0  0  0  0  0  0
   -3.2820    2.1090  -18.7950 H   0  0  0  0  0  0  0  0  0  0  0  0
   -4.7350    0.9420  -17.2150 H   0  0  0  0  0  0  0  0  0  0  0  0
   -7.3000   -2.0510  -18.4410 H   0  0  0  0  0  0  0  0  0  0  0  0
   -6.3940   -3.4380  -21.1170 C   0  0  0  0  0  0  0  0  0  0  0  0
   -7.4440   -3.9800  -22.0900 C   0  0  2  0  0  0  0  0  0  0  0  0
   -6.9770   -5.2000  -22.8670 C   0  0  0  0  0  0  0  0  0  0  0  0
   -7.7370   -5.5010  -23.5920 H   0  0  0  0  0  0  0  0  0  0  0  0
   -6.7910   -6.0370  -22.1850 H   0  0  0  0  0  0  0  0  0  0  0  0
   -6.0590   -4.9870  -23.4240 H   0  0  0  0  0  0  0  0  0  0  0  0
   -8.3280   -4.2600  -21.5010 H   0  0  0  0  0  0  0  0  0  0  0  0
   -6.4120   -3.9330  -20.1430 H   0  0  0  0  0  0  0  0  0  0  0  0
   -5.3730   -3.5460  -21.5210 H   0  0  0  0  0  0  0  0  0  0  0  0
   -9.3820   -2.7650  -23.2490 C   0  0  0  0  0  0  0  0  0  0  0  0
  -10.3130   -2.5150  -22.2280 C   0  0  0  0  0  0  0  0  0  0  0  0
  -11.6490   -2.8250  -22.4390 C   0  0  0  0  0  0  0  0  0  0  0  0
  -12.8260   -2.7400  -21.1600 Cl  0  0  0  0  0  0  0  0  0  0  0  0
  -12.1000   -3.3050  -23.6680 C   0  0  0  0  0  0  0  0  0  0  0  0
  -11.2070   -3.4250  -24.7170 C   0  0  0  0  0  0  0  0  0  0  0  0
   -9.8520   -3.1810  -24.5000 C   0  0  0  0  0  0  0  0  0  0  0  0
   -8.9110   -3.5070  -25.6120 C   0  0  0  0  0  0  0  0  0  0  0  0
   -9.3130   -3.9240  -26.7000 O   0  0  0  0  0  0  0  0  0  0  0  0
  -11.5040   -3.7560  -25.7110 H   0  0  0  0  0  0  0  0  0  0  0  0
  -13.1430   -3.5920  -23.7570 H   0  0  0  0  0  0  0  0  0  0  0  0
   -9.9880   -2.1250  -21.2680 H   0  0  0  0  0  0  0  0  0  0  0  0
   -7.1930   -1.4440  -24.5200 H   0  0  0  0  0  0  0  0  0  0  0  0
   -6.0440   -2.7300  -24.0810 H   0  0  0  0  0  0  0  0  0  0  0  0
   -7.1100   -3.3230  -27.3790 H   0  0  0  0  0  0  0  0  0  0  0  0
   -5.7470   -3.0960  -26.2680 H   0  0  0  0  0  0  0  0  0  0  0  0
   -7.9140   -5.4010  -27.7520 H   0  0  0  0  0  0  0  0  0  0  0  0
   -7.6890   -7.6060  -28.2330 H   0  0  0  0  0  0  0  0  0  0  0  0
   -6.8860   -7.6860  -26.6510 H   0  0  0  0  0  0  0  0  0  0  0  0
   -4.6840   -7.3000  -27.7130 H   0  0  0  0  0  0  0  0  0  0  0  0
   -5.4930   -8.7410  -28.3860 H   0  0  0  0  0  0  0  0  0  0  0  0
   -5.4300   -7.2320  -29.3370 H   0  0  0  0  0  0  0  0  0  0  0  0
  1  2  1  0  0  0  0
  1 57  1  0  0  0  0
  1 58  1  0  0  0  0
  1 59  1  0  0  0  0
  2  3  1  0  0  0  0
  2 55  1  0  0  0  0
  2 56  1  0  0  0  0
  3  4  1  0  0  0  0
  3 54  1  0  0  0  0
  4  5  2  0  0  0  0
  4  6  1  0  0  0  0
  6  7  1  0  0  0  0
  6 52  1  0  0  0  0
  6 53  1  0  0  0  0
  7  8  1  0  0  0  0
  7 45  1  0  0  0  0
  8  9  1  0  0  0  0
  8 50  1  0  0  0  0
  8 51  1  0  0  0  0
  9 10  1  1  0  0  0
  9 30  1  0  0  0  0
  9 38  1  0  0  0  0
 10 11  2  0  0  0  0
 10 12  1  0  0  0  0
 12 13  1  0  0  0  0
 12 29  1  0  0  0  0
 13 14  2  0  0  0  0
 13 22  1  0  0  0  0
 14 15  1  0  0  0  0
 14 28  1  0  0  0  0
 15 16  2  0  0  0  0
 16 17  1  0  0  0  0
 16 27  1  0  0  0  0
 17 18  2  0  0  0  0
 17 22  1  0  0  0  0
 18 19  1  0  0  0  0
 18 26  1  0  0  0  0
 19 20  2  0  0  0  0
 19 25  1  0  0  0  0
 20 21  1  0  0  0  0
 20 24  1  0  0  0  0
 21 22  2  0  0  0  0
 21 23  1  0  0  0  0
 29 30  1  0  0  0  0
 29 36  1  0  0  0  0
 29 37  1  0  0  0  0
 30 31  1  0  0  0  0
 30 35  1  1  0  0  0
 31 32  1  0  0  0  0
 31 33  1  0  0  0  0
 31 34  1  0  0  0  0
 38 39  2  0  0  0  0
 38 44  1  0  0  0  0
 39 40  1  0  0  0  0
 39 49  1  0  0  0  0
 40 41  1  0  0  0  0
 40 42  2  0  0  0  0
 42 43  1  0  0  0  0
 42 48  1  0  0  0  0
 43 44  2  0  0  0  0
 43 47  1  0  0  0  0
 44 45  1  0  0  0  0
 45 46  2  0  0  0  0
M  END
>  <MODEL>
       2

$$$$
best_conformers_53.pdb
 OpenBabel01292518153D

 59 63  0  0  1  0  0  0  0  0999 V2000
   -5.2580   -2.2520  -30.2880 C   0  0  0  0  0  0  0  0  0  0  0  0
   -6.5110   -1.8610  -29.5070 C   0  0  0  0  0  0  0  0  0  0  0  0
   -6.8470   -2.8370  -28.4820 N   0  0  0  0  0  0  0  0  0  0  0  0
   -6.2160   -2.7690  -27.2800 C   0  0  0  0  0  0  0  0  0  0  0  0
   -5.4140   -1.8910  -26.9930 O   0  0  0  0  0  0  0  0  0  0  0  0
   -6.5960   -3.8640  -26.2880 C   0  0  0  0  0  0  0  0  0  0  0  0
   -7.5430   -3.3670  -25.3070 N   0  0  0  0  0  0  0  0  0  0  0  0
   -7.0690   -2.4910  -24.2430 C   0  0  0  0  0  0  0  0  0  0  0  0
   -7.8650   -2.7130  -22.9400 C   0  0  2  0  0  0  0  0  0  0  0  0
   -7.5140   -1.5560  -22.0000 C   0  0  0  0  0  0  0  0  0  0  0  0
   -7.8120   -0.3850  -22.1390 O   0  0  0  0  0  0  0  0  0  0  0  0
   -6.7370   -2.0450  -20.9760 N   0  0  0  0  0  0  0  0  0  0  0  0
   -6.1590   -1.1960  -20.0140 C   0  0  0  0  0  0  0  0  0  0  0  0
   -6.5420   -1.3170  -18.7050 C   0  0  0  0  0  0  0  0  0  0  0  0
   -6.0580   -0.5620  -17.6920 N   0  0  0  0  0  0  0  0  0  0  0  0
   -5.1450    0.3280  -18.0080 C   0  0  0  0  0  0  0  0  0  0  0  0
   -4.6410    0.5320  -19.3250 C   0  0  0  0  0  0  0  0  0  0  0  0
   -3.6460    1.5050  -19.5990 C   0  0  0  0  0  0  0  0  0  0  0  0
   -3.1520    1.6540  -20.8650 C   0  0  0  0  0  0  0  0  0  0  0  0
   -3.6300    0.8420  -21.9180 C   0  0  0  0  0  0  0  0  0  0  0  0
   -4.6040   -0.0940  -21.6840 C   0  0  0  0  0  0  0  0  0  0  0  0
   -5.1450   -0.2610  -20.3750 C   0  0  0  0  0  0  0  0  0  0  0  0
   -4.9760   -0.6990  -22.5070 H   0  0  0  0  0  0  0  0  0  0  0  0
   -3.2260    0.9680  -22.9170 H   0  0  0  0  0  0  0  0  0  0  0  0
   -2.3860    2.3970  -21.0670 H   0  0  0  0  0  0  0  0  0  0  0  0
   -3.2920    2.1190  -18.7770 H   0  0  0  0  0  0  0  0  0  0  0  0
   -4.7540    0.9430  -17.1990 H   0  0  0  0  0  0  0  0  0  0  0  0
   -7.2980   -2.0570  -18.4430 H   0  0  0  0  0  0  0  0  0  0  0  0
   -6.3490   -3.4320  -21.1300 C   0  0  0  0  0  0  0  0  0  0  0  0
   -7.4270   -3.9590  -22.0780 C   0  0  2  0  0  0  0  0  0  0  0  0
   -7.0060   -5.2240  -22.8080 C   0  0  0  0  0  0  0  0  0  0  0  0
   -6.8080   -6.0260  -22.0880 H   0  0  0  0  0  0  0  0  0  0  0  0
   -6.0910   -5.0490  -23.3860 H   0  0  0  0  0  0  0  0  0  0  0  0
   -7.7910   -5.5520  -23.4930 H   0  0  0  0  0  0  0  0  0  0  0  0
   -8.3100   -4.1790  -21.4650 H   0  0  0  0  0  0  0  0  0  0  0  0
   -6.3390   -3.9390  -20.1600 H   0  0  0  0  0  0  0  0  0  0  0  0
   -5.3360   -3.5370  -21.5560 H   0  0  0  0  0  0  0  0  0  0  0  0
   -9.3510   -2.7420  -23.2720 C   0  0  0  0  0  0  0  0  0  0  0  0
  -10.2950   -2.5150  -22.2560 C   0  0  0  0  0  0  0  0  0  0  0  0
  -11.6150   -2.8990  -22.4420 C   0  0  0  0  0  0  0  0  0  0  0  0
  -12.7810   -2.8230  -21.1470 Cl  0  0  0  0  0  0  0  0  0  0  0  0
  -12.0490   -3.4070  -23.6610 C   0  0  0  0  0  0  0  0  0  0  0  0
  -11.1570   -3.4950  -24.7100 C   0  0  0  0  0  0  0  0  0  0  0  0
   -9.8160   -3.1730  -24.5200 C   0  0  0  0  0  0  0  0  0  0  0  0
   -8.8660   -3.4430  -25.6360 C   0  0  0  0  0  0  0  0  0  0  0  0
   -9.2410   -3.7670  -26.7630 O   0  0  0  0  0  0  0  0  0  0  0  0
  -11.4600   -3.8360  -25.6920 H   0  0  0  0  0  0  0  0  0  0  0  0
  -13.0710   -3.7450  -23.7460 H   0  0  0  0  0  0  0  0  0  0  0  0
  -10.0100   -2.0760  -21.3050 H   0  0  0  0  0  0  0  0  0  0  0  0
   -5.9950   -2.6630  -24.0940 H   0  0  0  0  0  0  0  0  0  0  0  0
   -7.1760   -1.4310  -24.5170 H   0  0  0  0  0  0  0  0  0  0  0  0
   -5.6970   -4.2050  -25.7670 H   0  0  0  0  0  0  0  0  0  0  0  0
   -7.0410   -4.7240  -26.7980 H   0  0  0  0  0  0  0  0  0  0  0  0
   -7.7200   -3.3440  -28.5350 H   0  0  0  0  0  0  0  0  0  0  0  0
   -7.3770   -1.7420  -30.1640 H   0  0  0  0  0  0  0  0  0  0  0  0
   -6.3340   -0.9030  -29.0060 H   0  0  0  0  0  0  0  0  0  0  0  0
   -4.3820   -2.1890  -29.6320 H   0  0  0  0  0  0  0  0  0  0  0  0
   -5.3170   -3.2710  -30.6870 H   0  0  0  0  0  0  0  0  0  0  0  0
   -5.1220   -1.5650  -31.1280 H   0  0  0  0  0  0  0  0  0  0  0  0
  1  2  1  0  0  0  0
  1 57  1  0  0  0  0
  1 58  1  0  0  0  0
  1 59  1  0  0  0  0
  2  3  1  0  0  0  0
  2 55  1  0  0  0  0
  2 56  1  0  0  0  0
  3  4  1  0  0  0  0
  3 54  1  0  0  0  0
  4  5  2  0  0  0  0
  4  6  1  0  0  0  0
  6  7  1  0  0  0  0
  6 52  1  0  0  0  0
  6 53  1  0  0  0  0
  7  8  1  0  0  0  0
  7 45  1  0  0  0  0
  8  9  1  0  0  0  0
  8 50  1  0  0  0  0
  8 51  1  0  0  0  0
  9 10  1  1  0  0  0
  9 30  1  0  0  0  0
  9 38  1  0  0  0  0
 10 11  2  0  0  0  0
 10 12  1  0  0  0  0
 12 13  1  0  0  0  0
 12 29  1  0  0  0  0
 13 14  2  0  0  0  0
 13 22  1  0  0  0  0
 14 15  1  0  0  0  0
 14 28  1  0  0  0  0
 15 16  2  0  0  0  0
 16 17  1  0  0  0  0
 16 27  1  0  0  0  0
 17 18  2  0  0  0  0
 17 22  1  0  0  0  0
 18 19  1  0  0  0  0
 18 26  1  0  0  0  0
 19 20  2  0  0  0  0
 19 25  1  0  0  0  0
 20 21  1  0  0  0  0
 20 24  1  0  0  0  0
 21 22  2  0  0  0  0
 21 23  1  0  0  0  0
 29 30  1  0  0  0  0
 29 36  1  0  0  0  0
 29 37  1  0  0  0  0
 30 31  1  0  0  0  0
 30 35  1  1  0  0  0
 31 32  1  0  0  0  0
 31 33  1  0  0  0  0
 31 34  1  0  0  0  0
 38 39  2  0  0  0  0
 38 44  1  0  0  0  0
 39 40  1  0  0  0  0
 39 49  1  0  0  0  0
 40 41  1  0  0  0  0
 40 42  2  0  0  0  0
 42 43  1  0  0  0  0
 42 48  1  0  0  0  0
 43 44  2  0  0  0  0
 43 47  1  0  0  0  0
 44 45  1  0  0  0  0
 45 46  2  0  0  0  0
M  END
>  <MODEL>
       3

$$$$
best_conformers_53.pdb
 OpenBabel01292518153D

 59 63  0  0  1  0  0  0  0  0999 V2000
   -6.3360    3.6930  -23.9020 C   0  0  0  0  0  0  0  0  0  0  0  0
   -7.1130    2.5570  -23.2450 C   0  0  0  0  0  0  0  0  0  0  0  0
   -7.6500    1.6130  -24.2120 N   0  0  0  0  0  0  0  0  0  0  0  0
   -6.8460    0.6790  -24.7650 C   0  0  0  0  0  0  0  0  0  0  0  0
   -5.6330    0.6550  -24.5940 O   0  0  0  0  0  0  0  0  0  0  0  0
   -7.5480   -0.3660  -25.6390 C   0  0  0  0  0  0  0  0  0  0  0  0
   -8.3400   -1.3020  -24.8670 N   0  0  0  0  0  0  0  0  0  0  0  0
   -7.6800   -2.4180  -24.2100 C   0  0  0  0  0  0  0  0  0  0  0  0
   -8.1950   -2.6680  -22.7620 C   0  0  2  0  0  0  0  0  0  0  0  0
   -7.7070   -1.5250  -21.8490 C   0  0  0  0  0  0  0  0  0  0  0  0
   -8.0520   -0.3630  -21.8960 O   0  0  0  0  0  0  0  0  0  0  0  0
   -6.8010   -2.0290  -20.9540 N   0  0  0  0  0  0  0  0  0  0  0  0
   -6.1700   -1.2000  -19.9960 C   0  0  0  0  0  0  0  0  0  0  0  0
   -6.5300   -1.3040  -18.6780 C   0  0  0  0  0  0  0  0  0  0  0  0
   -6.0270   -0.5380  -17.6800 N   0  0  0  0  0  0  0  0  0  0  0  0
   -5.1150    0.3490  -18.0110 C   0  0  0  0  0  0  0  0  0  0  0  0
   -4.6280    0.5390  -19.3370 C   0  0  0  0  0  0  0  0  0  0  0  0
   -3.6280    1.5050  -19.6400 C   0  0  0  0  0  0  0  0  0  0  0  0
   -3.1620    1.6530  -20.9180 C   0  0  0  0  0  0  0  0  0  0  0  0
   -3.6750    0.8440  -21.9580 C   0  0  0  0  0  0  0  0  0  0  0  0
   -4.6450   -0.0940  -21.6940 C   0  0  0  0  0  0  0  0  0  0  0  0
   -5.1590   -0.2640  -20.3750 C   0  0  0  0  0  0  0  0  0  0  0  0
   -5.0240   -0.7010  -22.5110 H   0  0  0  0  0  0  0  0  0  0  0  0
   -3.3290    0.9740  -22.9800 H   0  0  0  0  0  0  0  0  0  0  0  0
   -2.4010    2.3980  -21.1430 H   0  0  0  0  0  0  0  0  0  0  0  0
   -3.2490    2.1260  -18.8320 H   0  0  0  0  0  0  0  0  0  0  0  0
   -4.7040    0.9660  -17.2100 H   0  0  0  0  0  0  0  0  0  0  0  0
   -7.2900   -2.0270  -18.3820 H   0  0  0  0  0  0  0  0  0  0  0  0
   -6.4690   -3.4200  -21.1490 C   0  0  0  0  0  0  0  0  0  0  0  0
   -7.5410   -3.9370  -22.1330 C   0  0  2  0  0  0  0  0  0  0  0  0
   -6.9630   -4.9860  -23.0940 C   0  0  0  0  0  0  0  0  0  0  0  0
   -7.7160   -5.3640  -23.7960 H   0  0  0  0  0  0  0  0  0  0  0  0
   -6.1290   -4.5820  -23.6790 H   0  0  0  0  0  0  0  0  0  0  0  0
   -6.5750   -5.8480  -22.5390 H   0  0  0  0  0  0  0  0  0  0  0  0
   -8.3410   -4.4250  -21.5800 H   0  0  0  0  0  0  0  0  0  0  0  0
   -5.4620   -3.5240  -21.5760 H   0  0  0  0  0  0  0  0  0  0  0  0
   -6.4680   -3.9450  -20.1900 H   0  0  0  0  0  0  0  0  0  0  0  0
   -9.7190   -2.6550  -22.7700 C   0  0  0  0  0  0  0  0  0  0  0  0
  -10.4900   -3.2030  -21.7330 C   0  0  0  0  0  0  0  0  0  0  0  0
  -11.8770   -3.1340  -21.8120 C   0  0  0  0  0  0  0  0  0  0  0  0
  -12.9300   -3.6510  -20.5180 Cl  0  0  0  0  0  0  0  0  0  0  0  0
  -12.5210   -2.5490  -22.9030 C   0  0  0  0  0  0  0  0  0  0  0  0
  -11.7670   -1.9230  -23.8690 C   0  0  0  0  0  0  0  0  0  0  0  0
  -10.3830   -1.9240  -23.7610 C   0  0  0  0  0  0  0  0  0  0  0  0
   -9.6330   -0.9830  -24.6300 C   0  0  0  0  0  0  0  0  0  0  0  0
  -10.1570    0.0330  -25.0870 O   0  0  0  0  0  0  0  0  0  0  0  0
  -12.2230   -1.4070  -24.7080 H   0  0  0  0  0  0  0  0  0  0  0  0
  -13.6030   -2.5210  -22.9200 H   0  0  0  0  0  0  0  0  0  0  0  0
  -10.0030   -3.6190  -20.8560 H   0  0  0  0  0  0  0  0  0  0  0  0
   -7.8230   -3.3280  -24.8050 H   0  0  0  0  0  0  0  0  0  0  0  0
   -6.6130   -2.1770  -24.1700 H   0  0  0  0  0  0  0  0  0  0  0  0
   -6.7730   -0.8990  -26.1950 H   0  0  0  0  0  0  0  0  0  0  0  0
   -8.2440    0.1310  -26.3200 H   0  0  0  0  0  0  0  0  0  0  0  0
   -8.6520    1.5010  -24.2960 H   0  0  0  0  0  0  0  0  0  0  0  0
   -7.9560    2.9290  -22.6540 H   0  0  0  0  0  0  0  0  0  0  0  0
   -6.4520    2.0110  -22.5640 H   0  0  0  0  0  0  0  0  0  0  0  0
   -6.9600    4.2410  -24.6140 H   0  0  0  0  0  0  0  0  0  0  0  0
   -5.9670    4.3970  -23.1500 H   0  0  0  0  0  0  0  0  0  0  0  0
   -5.4720    3.2950  -24.4420 H   0  0  0  0  0  0  0  0  0  0  0  0
  1  2  1  0  0  0  0
  1 57  1  0  0  0  0
  1 58  1  0  0  0  0
  1 59  1  0  0  0  0
  2  3  1  0  0  0  0
  2 55  1  0  0  0  0
  2 56  1  0  0  0  0
  3  4  1  0  0  0  0
  3 54  1  0  0  0  0
  4  5  2  0  0  0  0
  4  6  1  0  0  0  0
  6  7  1  0  0  0  0
  6 52  1  0  0  0  0
  6 53  1  0  0  0  0
  7  8  1  0  0  0  0
  7 45  1  0  0  0  0
  8  9  1  0  0  0  0
  8 50  1  0  0  0  0
  8 51  1  0  0  0  0
  9 10  1  1  0  0  0
  9 30  1  0  0  0  0
  9 38  1  0  0  0  0
 10 11  2  0  0  0  0
 10 12  1  0  0  0  0
 12 13  1  0  0  0  0
 12 29  1  0  0  0  0
 13 14  2  0  0  0  0
 13 22  1  0  0  0  0
 14 15  1  0  0  0  0
 14 28  1  0  0  0  0
 15 16  2  0  0  0  0
 16 17  1  0  0  0  0
 16 27  1  0  0  0  0
 17 18  2  0  0  0  0
 17 22  1  0  0  0  0
 18 19  1  0  0  0  0
 18 26  1  0  0  0  0
 19 20  2  0  0  0  0
 19 25  1  0  0  0  0
 20 21  1  0  0  0  0
 20 24  1  0  0  0  0
 21 22  2  0  0  0  0
 21 23  1  0  0  0  0
 29 30  1  0  0  0  0
 29 36  1  0  0  0  0
 29 37  1  0  0  0  0
 30 31  1  0  0  0  0
 30 35  1  1  0  0  0
 31 32  1  0  0  0  0
 31 33  1  0  0  0  0
 31 34  1  0  0  0  0
 38 39  2  0  0  0  0
 38 44  1  0  0  0  0
 39 40  1  0  0  0  0
 39 49  1  0  0  0  0
 40 41  1  0  0  0  0
 40 42  2  0  0  0  0
 42 43  1  0  0  0  0
 42 48  1  0  0  0  0
 43 44  2  0  0  0  0
 43 47  1  0  0  0  0
 44 45  1  0  0  0  0
 45 46  2  0  0  0  0
M  END
>  <MODEL>
       4

$$$$
