best_conformers_24.pdb
 OpenBabel01292518153D

 65 70  0  0  1  0  0  0  0  0999 V2000
   -3.1880   -7.2470  -22.6790 O   0  0  0  0  0  0  0  0  0  0  0  0
   -4.1790   -7.8440  -23.0770 C   0  0  0  0  0  0  0  0  0  0  0  0
   -5.5360   -7.4360  -22.5010 C   0  0  0  0  0  0  0  0  0  0  0  0
   -5.7410   -6.0040  -22.8450 N   0  3  1  0  0  0  0  0  0  0  0  0
   -5.7460   -5.8930  -24.3500 C   0  0  0  0  0  0  0  0  0  0  0  0
   -5.9010   -4.4830  -24.8280 C   0  0  0  0  0  0  0  0  0  0  0  0
   -5.5100   -4.1640  -26.1260 C   0  0  0  0  0  0  0  0  0  0  0  0
   -5.6330   -2.8750  -26.6160 C   0  0  0  0  0  0  0  0  0  0  0  0
   -6.1580   -1.8990  -25.7770 C   0  0  0  0  0  0  0  0  0  0  0  0
   -6.2930   -0.2690  -26.3830 Cl  0  0  0  0  0  0  0  0  0  0  0  0
   -6.5860   -2.2080  -24.4920 C   0  0  0  0  0  0  0  0  0  0  0  0
   -6.4880   -3.5240  -24.0070 C   0  0  0  0  0  0  0  0  0  0  0  0
   -6.9920   -3.8970  -22.6100 C   0  0  2  0  0  0  0  0  0  0  0  0
   -8.3370   -3.2410  -22.2580 C   0  0  0  0  0  0  0  0  0  0  0  0
   -8.0300   -2.0800  -21.3010 C   0  0  0  0  0  0  0  0  0  0  0  0
   -6.6240   -2.2460  -20.9660 N   0  0  0  0  0  0  0  0  0  0  0  0
   -6.0340   -1.3780  -20.0180 C   0  0  0  0  0  0  0  0  0  0  0  0
   -6.5180   -1.3840  -18.7330 C   0  0  0  0  0  0  0  0  0  0  0  0
   -6.0820   -0.5820  -17.7350 N   0  0  0  0  0  0  0  0  0  0  0  0
   -5.1540    0.2920  -18.0430 C   0  0  0  0  0  0  0  0  0  0  0  0
   -4.6150    0.4570  -19.3490 C   0  0  0  0  0  0  0  0  0  0  0  0
   -3.6540    1.4630  -19.6220 C   0  0  0  0  0  0  0  0  0  0  0  0
   -3.2100    1.6600  -20.8990 C   0  0  0  0  0  0  0  0  0  0  0  0
   -3.7050    0.8600  -21.9550 C   0  0  0  0  0  0  0  0  0  0  0  0
   -4.6150   -0.1410  -21.7160 C   0  0  0  0  0  0  0  0  0  0  0  0
   -5.0820   -0.3770  -20.3910 C   0  0  0  0  0  0  0  0  0  0  0  0
   -4.9870   -0.7500  -22.5400 H   0  0  0  0  0  0  0  0  0  0  0  0
   -3.3590    1.0440  -22.9680 H   0  0  0  0  0  0  0  0  0  0  0  0
   -2.4900    2.4460  -21.1110 H   0  0  0  0  0  0  0  0  0  0  0  0
   -3.3120    2.0840  -18.7980 H   0  0  0  0  0  0  0  0  0  0  0  0
   -4.7890    0.9310  -17.2400 H   0  0  0  0  0  0  0  0  0  0  0  0
   -7.3160   -2.0750  -18.4700 H   0  0  0  0  0  0  0  0  0  0  0  0
   -6.0320   -3.3370  -21.5560 C   0  0  0  0  0  0  0  0  0  0  0  0
   -4.9550   -3.8490  -21.2860 O   0  0  0  0  0  0  0  0  0  0  0  0
   -8.2110   -1.0950  -21.7540 H   0  0  0  0  0  0  0  0  0  0  0  0
   -8.6530   -2.1320  -20.4010 H   0  0  0  0  0  0  0  0  0  0  0  0
   -8.8720   -2.9070  -23.1520 H   0  0  0  0  0  0  0  0  0  0  0  0
   -8.9800   -3.9730  -21.7550 H   0  0  0  0  0  0  0  0  0  0  0  0
   -7.0210   -5.4180  -22.3470 C   0  0  0  0  0  0  0  0  0  0  0  0
   -7.8710   -5.9090  -22.8420 H   0  0  0  0  0  0  0  0  0  0  0  0
   -7.1090   -5.5890  -21.2670 H   0  0  0  0  0  0  0  0  0  0  0  0
   -6.9930   -1.4060  -23.8850 H   0  0  0  0  0  0  0  0  0  0  0  0
   -5.3240   -2.6370  -27.6280 H   0  0  0  0  0  0  0  0  0  0  0  0
   -5.1060   -4.9420  -26.7700 H   0  0  0  0  0  0  0  0  0  0  0  0
   -4.8210   -6.3210  -24.7340 H   0  0  0  0  0  0  0  0  0  0  0  0
   -6.5790   -6.5100  -24.7170 H   0  0  0  0  0  0  0  0  0  0  0  0
   -4.9610   -5.4360  -22.4280 H   0  0  0  0  0  0  0  0  0  0  0  0
   -6.3570   -8.0420  -22.8970 H   0  0  0  0  0  0  0  0  0  0  0  0
   -5.5360   -7.5490  -21.4130 H   0  0  0  0  0  0  0  0  0  0  0  0
   -4.1450   -8.7660  -24.0980 N   0  0  0  0  0  0  0  0  0  0  0  0
   -2.8760   -9.3750  -24.4680 C   0  0  0  0  0  0  0  0  0  0  0  0
   -2.8810   -9.9760  -25.8720 C   0  0  1  0  0  0  0  0  0  0  0  0
   -3.2090   -9.0480  -27.0690 C   0  0  0  0  0  0  0  0  0  0  0  0
   -1.8870   -9.4540  -27.7380 C   0  0  1  0  0  0  0  0  0  0  0  0
   -1.0380   -8.3850  -27.9740 F   0  0  0  0  0  0  0  0  0  0  0  0
   -1.5030  -10.2860  -26.5080 C   0  0  0  0  0  0  0  0  0  0  0  0
   -0.6550   -9.8540  -25.9730 H   0  0  0  0  0  0  0  0  0  0  0  0
   -1.2930  -11.3390  -26.7150 H   0  0  0  0  0  0  0  0  0  0  0  0
   -1.9750  -10.0270  -28.6680 H   0  0  0  0  0  0  0  0  0  0  0  0
   -4.1190   -9.2870  -27.6250 H   0  0  0  0  0  0  0  0  0  0  0  0
   -3.2090   -7.9800  -26.8360 H   0  0  0  0  0  0  0  0  0  0  0  0
   -3.4860  -10.8870  -25.8910 H   0  0  0  0  0  0  0  0  0  0  0  0
   -2.6070  -10.1530  -23.7410 H   0  0  0  0  0  0  0  0  0  0  0  0
   -2.1390   -8.5760  -24.3480 H   0  0  0  0  0  0  0  0  0  0  0  0
   -4.9950   -9.2780  -24.2730 H   0  0  0  0  0  0  0  0  0  0  0  0
  1  2  2  0  0  0  0
  2  3  1  0  0  0  0
  2 50  1  0  0  0  0
  3  4  1  0  0  0  0
  3 48  1  0  0  0  0
  3 49  1  0  0  0  0
  4  5  1  0  0  0  0
  4 39  1  0  0  0  0
  4 47  1  1  0  0  0
  5  6  1  0  0  0  0
  5 45  1  0  0  0  0
  5 46  1  0  0  0  0
  6  7  2  0  0  0  0
  6 12  1  0  0  0  0
  7  8  1  0  0  0  0
  7 44  1  0  0  0  0
  8  9  2  0  0  0  0
  8 43  1  0  0  0  0
  9 10  1  0  0  0  0
  9 11  1  0  0  0  0
 11 12  2  0  0  0  0
 11 42  1  0  0  0  0
 13 12  1  6  0  0  0
 13 14  1  0  0  0  0
 13 33  1  0  0  0  0
 13 39  1  0  0  0  0
 14 15  1  0  0  0  0
 14 37  1  0  0  0  0
 14 38  1  0  0  0  0
 15 16  1  0  0  0  0
 15 35  1  0  0  0  0
 15 36  1  0  0  0  0
 16 17  1  0  0  0  0
 16 33  1  0  0  0  0
 17 18  2  0  0  0  0
 17 26  1  0  0  0  0
 18 19  1  0  0  0  0
 18 32  1  0  0  0  0
 19 20  2  0  0  0  0
 20 21  1  0  0  0  0
 20 31  1  0  0  0  0
 21 22  2  0  0  0  0
 21 26  1  0  0  0  0
 22 23  1  0  0  0  0
 22 30  1  0  0  0  0
 23 24  2  0  0  0  0
 23 29  1  0  0  0  0
 24 25  1  0  0  0  0
 24 28  1  0  0  0  0
 25 26  2  0  0  0  0
 25 27  1  0  0  0  0
 33 34  2  0  0  0  0
 39 40  1  0  0  0  0
 39 41  1  0  0  0  0
 50 51  1  0  0  0  0
 50 65  1  0  0  0  0
 51 52  1  0  0  0  0
 51 63  1  0  0  0  0
 51 64  1  0  0  0  0
 52 53  1  0  0  0  0
 52 56  1  0  0  0  0
 52 62  1  6  0  0  0
 53 54  1  0  0  0  0
 53 60  1  0  0  0  0
 53 61  1  0  0  0  0
 54 55  1  0  0  0  0
 54 56  1  0  0  0  0
 54 59  1  6  0  0  0
 56 57  1  0  0  0  0
 56 58  1  0  0  0  0
M  CHG  1   4   1
M  END
>  <MODEL>
       1

$$$$
