best_conformers_89.pdb
 OpenBabel01292518153D

 43 45  0  0  0  0  0  0  0  0999 V2000
   -5.9850   -6.3120  -26.1030 C   0  0  0  0  0  0  0  0  0  0  0  0
   -6.7680   -5.6050  -24.9890 C   0  0  0  0  0  0  0  0  0  0  0  0
   -8.2620   -5.8790  -25.1990 C   0  0  0  0  0  0  0  0  0  0  0  0
   -8.8780   -5.3610  -24.4570 H   0  0  0  0  0  0  0  0  0  0  0  0
   -8.4830   -6.9490  -25.1230 H   0  0  0  0  0  0  0  0  0  0  0  0
   -8.5920   -5.5470  -26.1890 H   0  0  0  0  0  0  0  0  0  0  0  0
   -6.4880   -4.0920  -25.0630 C   0  0  0  0  0  0  0  0  0  0  0  0
   -6.7310   -3.3370  -23.7550 C   0  0  0  0  0  0  0  0  0  0  0  0
   -5.9840   -3.9170  -22.6430 N   0  0  0  0  0  0  0  0  0  0  0  0
   -5.7970   -3.2910  -21.4360 C   0  0  0  0  0  0  0  0  0  0  0  0
   -4.9350   -3.6610  -20.6510 O   0  0  0  0  0  0  0  0  0  0  0  0
   -6.7450   -2.1310  -21.0380 C   0  0  0  0  0  0  0  0  0  0  0  0
   -6.1380   -1.2110  -20.0030 C   0  0  0  0  0  0  0  0  0  0  0  0
   -6.5050   -1.2810  -18.6830 C   0  0  0  0  0  0  0  0  0  0  0  0
   -6.0140   -0.5110  -17.6710 N   0  0  0  0  0  0  0  0  0  0  0  0
   -5.0970    0.3690  -17.9980 C   0  0  0  0  0  0  0  0  0  0  0  0
   -4.6050    0.5530  -19.3210 C   0  0  0  0  0  0  0  0  0  0  0  0
   -3.6070    1.5160  -19.6270 C   0  0  0  0  0  0  0  0  0  0  0  0
   -3.1520    1.6680  -20.9090 C   0  0  0  0  0  0  0  0  0  0  0  0
   -3.6770    0.8600  -21.9430 C   0  0  0  0  0  0  0  0  0  0  0  0
   -4.6440   -0.0770  -21.6740 C   0  0  0  0  0  0  0  0  0  0  0  0
   -5.1370   -0.2580  -20.3540 C   0  0  0  0  0  0  0  0  0  0  0  0
   -5.0340   -0.6880  -22.4830 H   0  0  0  0  0  0  0  0  0  0  0  0
   -3.3150    0.9880  -22.9590 H   0  0  0  0  0  0  0  0  0  0  0  0
   -2.3910    2.4080  -21.1460 H   0  0  0  0  0  0  0  0  0  0  0  0
   -3.2110    2.1360  -18.8250 H   0  0  0  0  0  0  0  0  0  0  0  0
   -4.6880    0.9920  -17.1990 H   0  0  0  0  0  0  0  0  0  0  0  0
   -7.2610   -1.9980  -18.3680 H   0  0  0  0  0  0  0  0  0  0  0  0
   -7.0950   -1.5470  -21.8980 H   0  0  0  0  0  0  0  0  0  0  0  0
   -7.6450   -2.5870  -20.6000 H   0  0  0  0  0  0  0  0  0  0  0  0
   -5.3690   -5.2250  -22.8700 C   0  0  0  0  0  0  0  0  0  0  0  0
   -6.3340   -6.1460  -23.6070 C   0  0  0  0  0  0  0  0  0  0  0  0
   -5.8890   -7.1400  -23.7190 H   0  0  0  0  0  0  0  0  0  0  0  0
   -7.2080   -6.2920  -22.9630 H   0  0  0  0  0  0  0  0  0  0  0  0
   -5.0990   -5.6470  -21.9040 H   0  0  0  0  0  0  0  0  0  0  0  0
   -4.4330   -5.1310  -23.4330 H   0  0  0  0  0  0  0  0  0  0  0  0
   -6.4240   -2.2950  -23.9080 H   0  0  0  0  0  0  0  0  0  0  0  0
   -7.8040   -3.3140  -23.5320 H   0  0  0  0  0  0  0  0  0  0  0  0
   -5.4560   -3.9120  -25.3880 H   0  0  0  0  0  0  0  0  0  0  0  0
   -7.1060   -3.6500  -25.8510 H   0  0  0  0  0  0  0  0  0  0  0  0
   -4.9040   -6.1950  -25.9730 H   0  0  0  0  0  0  0  0  0  0  0  0
   -6.2440   -5.9150  -27.0900 H   0  0  0  0  0  0  0  0  0  0  0  0
   -6.1980   -7.3860  -26.1150 H   0  0  0  0  0  0  0  0  0  0  0  0
  1  2  1  0  0  0  0
  1 41  1  0  0  0  0
  1 42  1  0  0  0  0
  1 43  1  0  0  0  0
  2  3  1  0  0  0  0
  2  7  1  0  0  0  0
  2 32  1  0  0  0  0
  3  4  1  0  0  0  0
  3  5  1  0  0  0  0
  3  6  1  0  0  0  0
  7  8  1  0  0  0  0
  7 39  1  0  0  0  0
  7 40  1  0  0  0  0
  8  9  1  0  0  0  0
  8 37  1  0  0  0  0
  8 38  1  0  0  0  0
  9 10  1  0  0  0  0
  9 31  1  0  0  0  0
 10 11  2  0  0  0  0
 10 12  1  0  0  0  0
 12 13  1  0  0  0  0
 12 29  1  0  0  0  0
 12 30  1  0  0  0  0
 13 14  2  0  0  0  0
 13 22  1  0  0  0  0
 14 15  1  0  0  0  0
 14 28  1  0  0  0  0
 15 16  2  0  0  0  0
 16 17  1  0  0  0  0
 16 27  1  0  0  0  0
 17 18  2  0  0  0  0
 17 22  1  0  0  0  0
 18 19  1  0  0  0  0
 18 26  1  0  0  0  0
 19 20  2  0  0  0  0
 19 25  1  0  0  0  0
 20 21  1  0  0  0  0
 20 24  1  0  0  0  0
 21 22  2  0  0  0  0
 21 23  1  0  0  0  0
 31 32  1  0  0  0  0
 31 35  1  0  0  0  0
 31 36  1  0  0  0  0
 32 33  1  0  0  0  0
 32 34  1  0  0  0  0
M  END
>  <MODEL>
       1

$$$$
best_conformers_89.pdb
 OpenBabel01292518153D

 43 45  0  0  0  0  0  0  0  0999 V2000
   -5.9670   -6.3050  -26.1060 C   0  0  0  0  0  0  0  0  0  0  0  0
   -6.7550   -5.6010  -24.9950 C   0  0  0  0  0  0  0  0  0  0  0  0
   -8.2480   -5.8760  -25.2110 C   0  0  0  0  0  0  0  0  0  0  0  0
   -8.8670   -5.3600  -24.4710 H   0  0  0  0  0  0  0  0  0  0  0  0
   -8.4680   -6.9470  -25.1380 H   0  0  0  0  0  0  0  0  0  0  0  0
   -8.5740   -5.5430  -26.2020 H   0  0  0  0  0  0  0  0  0  0  0  0
   -6.3270   -6.1440  -23.6120 C   0  0  0  0  0  0  0  0  0  0  0  0
   -5.3640   -5.2240  -22.8700 C   0  0  0  0  0  0  0  0  0  0  0  0
   -5.9800   -3.9160  -22.6430 N   0  0  0  0  0  0  0  0  0  0  0  0
   -5.7950   -3.2920  -21.4360 C   0  0  0  0  0  0  0  0  0  0  0  0
   -4.9360   -3.6620  -20.6490 O   0  0  0  0  0  0  0  0  0  0  0  0
   -6.7440   -2.1320  -21.0370 C   0  0  0  0  0  0  0  0  0  0  0  0
   -6.1380   -1.2120  -20.0030 C   0  0  0  0  0  0  0  0  0  0  0  0
   -6.5050   -1.2810  -18.6830 C   0  0  0  0  0  0  0  0  0  0  0  0
   -6.0140   -0.5110  -17.6710 N   0  0  0  0  0  0  0  0  0  0  0  0
   -5.0970    0.3690  -17.9980 C   0  0  0  0  0  0  0  0  0  0  0  0
   -4.6050    0.5530  -19.3210 C   0  0  0  0  0  0  0  0  0  0  0  0
   -3.6070    1.5160  -19.6270 C   0  0  0  0  0  0  0  0  0  0  0  0
   -3.1510    1.6680  -20.9090 C   0  0  0  0  0  0  0  0  0  0  0  0
   -3.6770    0.8600  -21.9430 C   0  0  0  0  0  0  0  0  0  0  0  0
   -4.6440   -0.0770  -21.6740 C   0  0  0  0  0  0  0  0  0  0  0  0
   -5.1370   -0.2580  -20.3540 C   0  0  0  0  0  0  0  0  0  0  0  0
   -5.0340   -0.6880  -22.4830 H   0  0  0  0  0  0  0  0  0  0  0  0
   -3.3150    0.9880  -22.9590 H   0  0  0  0  0  0  0  0  0  0  0  0
   -2.3910    2.4080  -21.1460 H   0  0  0  0  0  0  0  0  0  0  0  0
   -3.2110    2.1360  -18.8250 H   0  0  0  0  0  0  0  0  0  0  0  0
   -4.6880    0.9920  -17.1990 H   0  0  0  0  0  0  0  0  0  0  0  0
   -7.2610   -1.9980  -18.3680 H   0  0  0  0  0  0  0  0  0  0  0  0
   -7.6440   -2.5880  -20.6000 H   0  0  0  0  0  0  0  0  0  0  0  0
   -7.0940   -1.5480  -21.8980 H   0  0  0  0  0  0  0  0  0  0  0  0
   -6.7250   -3.3350  -23.7570 C   0  0  0  0  0  0  0  0  0  0  0  0
   -6.4760   -4.0870  -25.0650 C   0  0  0  0  0  0  0  0  0  0  0  0
   -5.4440   -3.9060  -25.3870 H   0  0  0  0  0  0  0  0  0  0  0  0
   -7.0930   -3.6450  -25.8540 H   0  0  0  0  0  0  0  0  0  0  0  0
   -7.7980   -3.3130  -23.5360 H   0  0  0  0  0  0  0  0  0  0  0  0
   -6.4180   -2.2920  -23.9070 H   0  0  0  0  0  0  0  0  0  0  0  0
   -4.4260   -5.1290  -23.4300 H   0  0  0  0  0  0  0  0  0  0  0  0
   -5.0970   -5.6470  -21.9040 H   0  0  0  0  0  0  0  0  0  0  0  0
   -7.2020   -6.2900  -22.9710 H   0  0  0  0  0  0  0  0  0  0  0  0
   -5.8810   -7.1370  -23.7230 H   0  0  0  0  0  0  0  0  0  0  0  0
   -6.2230   -5.9070  -27.0950 H   0  0  0  0  0  0  0  0  0  0  0  0
   -6.1790   -7.3800  -26.1210 H   0  0  0  0  0  0  0  0  0  0  0  0
   -4.8870   -6.1870  -25.9720 H   0  0  0  0  0  0  0  0  0  0  0  0
  1  2  1  0  0  0  0
  1 41  1  0  0  0  0
  1 42  1  0  0  0  0
  1 43  1  0  0  0  0
  2  3  1  0  0  0  0
  2  7  1  0  0  0  0
  2 32  1  0  0  0  0
  3  4  1  0  0  0  0
  3  5  1  0  0  0  0
  3  6  1  0  0  0  0
  7  8  1  0  0  0  0
  7 39  1  0  0  0  0
  7 40  1  0  0  0  0
  8  9  1  0  0  0  0
  8 37  1  0  0  0  0
  8 38  1  0  0  0  0
  9 10  1  0  0  0  0
  9 31  1  0  0  0  0
 10 11  2  0  0  0  0
 10 12  1  0  0  0  0
 12 13  1  0  0  0  0
 12 29  1  0  0  0  0
 12 30  1  0  0  0  0
 13 14  2  0  0  0  0
 13 22  1  0  0  0  0
 14 15  1  0  0  0  0
 14 28  1  0  0  0  0
 15 16  2  0  0  0  0
 16 17  1  0  0  0  0
 16 27  1  0  0  0  0
 17 18  2  0  0  0  0
 17 22  1  0  0  0  0
 18 19  1  0  0  0  0
 18 26  1  0  0  0  0
 19 20  2  0  0  0  0
 19 25  1  0  0  0  0
 20 21  1  0  0  0  0
 20 24  1  0  0  0  0
 21 22  2  0  0  0  0
 21 23  1  0  0  0  0
 31 32  1  0  0  0  0
 31 35  1  0  0  0  0
 31 36  1  0  0  0  0
 32 33  1  0  0  0  0
 32 34  1  0  0  0  0
M  END
>  <MODEL>
       2

$$$$
best_conformers_89.pdb
 OpenBabel01292518153D

 43 45  0  0  0  0  0  0  0  0999 V2000
   -8.2480   -5.8760  -25.2110 C   0  0  0  0  0  0  0  0  0  0  0  0
   -6.7550   -5.6010  -24.9950 C   0  0  0  0  0  0  0  0  0  0  0  0
   -5.9670   -6.3050  -26.1060 C   0  0  0  0  0  0  0  0  0  0  0  0
   -6.1790   -7.3800  -26.1210 H   0  0  0  0  0  0  0  0  0  0  0  0
   -4.8860   -6.1870  -25.9720 H   0  0  0  0  0  0  0  0  0  0  0  0
   -6.2230   -5.9070  -27.0950 H   0  0  0  0  0  0  0  0  0  0  0  0
   -6.4760   -4.0870  -25.0650 C   0  0  0  0  0  0  0  0  0  0  0  0
   -6.7240   -3.3350  -23.7570 C   0  0  0  0  0  0  0  0  0  0  0  0
   -5.9800   -3.9160  -22.6430 N   0  0  0  0  0  0  0  0  0  0  0  0
   -5.7950   -3.2920  -21.4360 C   0  0  0  0  0  0  0  0  0  0  0  0
   -4.9360   -3.6620  -20.6490 O   0  0  0  0  0  0  0  0  0  0  0  0
   -6.7440   -2.1320  -21.0370 C   0  0  0  0  0  0  0  0  0  0  0  0
   -6.1380   -1.2120  -20.0030 C   0  0  0  0  0  0  0  0  0  0  0  0
   -6.5050   -1.2810  -18.6830 C   0  0  0  0  0  0  0  0  0  0  0  0
   -6.0140   -0.5110  -17.6710 N   0  0  0  0  0  0  0  0  0  0  0  0
   -5.0970    0.3690  -17.9980 C   0  0  0  0  0  0  0  0  0  0  0  0
   -4.6050    0.5530  -19.3210 C   0  0  0  0  0  0  0  0  0  0  0  0
   -3.6070    1.5160  -19.6270 C   0  0  0  0  0  0  0  0  0  0  0  0
   -3.1510    1.6680  -20.9090 C   0  0  0  0  0  0  0  0  0  0  0  0
   -3.6770    0.8600  -21.9430 C   0  0  0  0  0  0  0  0  0  0  0  0
   -4.6440   -0.0770  -21.6740 C   0  0  0  0  0  0  0  0  0  0  0  0
   -5.1370   -0.2580  -20.3540 C   0  0  0  0  0  0  0  0  0  0  0  0
   -5.0340   -0.6880  -22.4830 H   0  0  0  0  0  0  0  0  0  0  0  0
   -3.3150    0.9880  -22.9590 H   0  0  0  0  0  0  0  0  0  0  0  0
   -2.3910    2.4080  -21.1460 H   0  0  0  0  0  0  0  0  0  0  0  0
   -3.2110    2.1360  -18.8250 H   0  0  0  0  0  0  0  0  0  0  0  0
   -4.6880    0.9920  -17.1990 H   0  0  0  0  0  0  0  0  0  0  0  0
   -7.2610   -1.9980  -18.3680 H   0  0  0  0  0  0  0  0  0  0  0  0
   -7.0940   -1.5480  -21.8980 H   0  0  0  0  0  0  0  0  0  0  0  0
   -7.6440   -2.5880  -20.6000 H   0  0  0  0  0  0  0  0  0  0  0  0
   -5.3640   -5.2240  -22.8700 C   0  0  0  0  0  0  0  0  0  0  0  0
   -6.3270   -6.1440  -23.6120 C   0  0  0  0  0  0  0  0  0  0  0  0
   -7.2020   -6.2900  -22.9710 H   0  0  0  0  0  0  0  0  0  0  0  0
   -5.8810   -7.1370  -23.7230 H   0  0  0  0  0  0  0  0  0  0  0  0
   -5.0970   -5.6470  -21.9040 H   0  0  0  0  0  0  0  0  0  0  0  0
   -4.4260   -5.1290  -23.4300 H   0  0  0  0  0  0  0  0  0  0  0  0
   -6.4180   -2.2920  -23.9070 H   0  0  0  0  0  0  0  0  0  0  0  0
   -7.7980   -3.3130  -23.5360 H   0  0  0  0  0  0  0  0  0  0  0  0
   -5.4440   -3.9060  -25.3870 H   0  0  0  0  0  0  0  0  0  0  0  0
   -7.0920   -3.6450  -25.8550 H   0  0  0  0  0  0  0  0  0  0  0  0
   -8.5740   -5.5430  -26.2020 H   0  0  0  0  0  0  0  0  0  0  0  0
   -8.4680   -6.9470  -25.1380 H   0  0  0  0  0  0  0  0  0  0  0  0
   -8.8670   -5.3600  -24.4710 H   0  0  0  0  0  0  0  0  0  0  0  0
  1  2  1  0  0  0  0
  1 41  1  0  0  0  0
  1 42  1  0  0  0  0
  1 43  1  0  0  0  0
  2  3  1  0  0  0  0
  2  7  1  0  0  0  0
  2 32  1  0  0  0  0
  3  4  1  0  0  0  0
  3  5  1  0  0  0  0
  3  6  1  0  0  0  0
  7  8  1  0  0  0  0
  7 39  1  0  0  0  0
  7 40  1  0  0  0  0
  8  9  1  0  0  0  0
  8 37  1  0  0  0  0
  8 38  1  0  0  0  0
  9 10  1  0  0  0  0
  9 31  1  0  0  0  0
 10 11  2  0  0  0  0
 10 12  1  0  0  0  0
 12 13  1  0  0  0  0
 12 29  1  0  0  0  0
 12 30  1  0  0  0  0
 13 14  2  0  0  0  0
 13 22  1  0  0  0  0
 14 15  1  0  0  0  0
 14 28  1  0  0  0  0
 15 16  2  0  0  0  0
 16 17  1  0  0  0  0
 16 27  1  0  0  0  0
 17 18  2  0  0  0  0
 17 22  1  0  0  0  0
 18 19  1  0  0  0  0
 18 26  1  0  0  0  0
 19 20  2  0  0  0  0
 19 25  1  0  0  0  0
 20 21  1  0  0  0  0
 20 24  1  0  0  0  0
 21 22  2  0  0  0  0
 21 23  1  0  0  0  0
 31 32  1  0  0  0  0
 31 35  1  0  0  0  0
 31 36  1  0  0  0  0
 32 33  1  0  0  0  0
 32 34  1  0  0  0  0
M  END
>  <MODEL>
       3

$$$$
best_conformers_89.pdb
 OpenBabel01292518153D

 43 45  0  0  0  0  0  0  0  0999 V2000
   -8.2500   -5.8740  -25.2110 C   0  0  0  0  0  0  0  0  0  0  0  0
   -6.7570   -5.6000  -24.9960 C   0  0  0  0  0  0  0  0  0  0  0  0
   -5.9700   -6.3030  -26.1080 C   0  0  0  0  0  0  0  0  0  0  0  0
   -6.2260   -5.9050  -27.0960 H   0  0  0  0  0  0  0  0  0  0  0  0
   -6.1820   -7.3780  -26.1230 H   0  0  0  0  0  0  0  0  0  0  0  0
   -4.8890   -6.1850  -25.9750 H   0  0  0  0  0  0  0  0  0  0  0  0
   -6.3280   -6.1430  -23.6130 C   0  0  0  0  0  0  0  0  0  0  0  0
   -5.3650   -5.2230  -22.8720 C   0  0  0  0  0  0  0  0  0  0  0  0
   -5.9800   -3.9150  -22.6440 N   0  0  0  0  0  0  0  0  0  0  0  0
   -5.7960   -3.2910  -21.4360 C   0  0  0  0  0  0  0  0  0  0  0  0
   -4.9360   -3.6620  -20.6500 O   0  0  0  0  0  0  0  0  0  0  0  0
   -6.7440   -2.1310  -21.0370 C   0  0  0  0  0  0  0  0  0  0  0  0
   -6.1380   -1.2110  -20.0030 C   0  0  0  0  0  0  0  0  0  0  0  0
   -6.5050   -1.2810  -18.6830 C   0  0  0  0  0  0  0  0  0  0  0  0
   -6.0140   -0.5110  -17.6710 N   0  0  0  0  0  0  0  0  0  0  0  0
   -5.0970    0.3690  -17.9980 C   0  0  0  0  0  0  0  0  0  0  0  0
   -4.6050    0.5530  -19.3210 C   0  0  0  0  0  0  0  0  0  0  0  0
   -3.6070    1.5160  -19.6270 C   0  0  0  0  0  0  0  0  0  0  0  0
   -3.1520    1.6680  -20.9090 C   0  0  0  0  0  0  0  0  0  0  0  0
   -3.6780    0.8600  -21.9430 C   0  0  0  0  0  0  0  0  0  0  0  0
   -4.6440   -0.0770  -21.6740 C   0  0  0  0  0  0  0  0  0  0  0  0
   -5.1370   -0.2580  -20.3540 C   0  0  0  0  0  0  0  0  0  0  0  0
   -5.0340   -0.6880  -22.4830 H   0  0  0  0  0  0  0  0  0  0  0  0
   -3.3150    0.9880  -22.9590 H   0  0  0  0  0  0  0  0  0  0  0  0
   -2.3910    2.4080  -21.1460 H   0  0  0  0  0  0  0  0  0  0  0  0
   -3.2110    2.1360  -18.8250 H   0  0  0  0  0  0  0  0  0  0  0  0
   -4.6880    0.9920  -17.1990 H   0  0  0  0  0  0  0  0  0  0  0  0
   -7.2610   -1.9980  -18.3680 H   0  0  0  0  0  0  0  0  0  0  0  0
   -7.6440   -2.5880  -20.6000 H   0  0  0  0  0  0  0  0  0  0  0  0
   -7.0950   -1.5470  -21.8980 H   0  0  0  0  0  0  0  0  0  0  0  0
   -6.7260   -3.3330  -23.7570 C   0  0  0  0  0  0  0  0  0  0  0  0
   -6.4780   -4.0850  -25.0660 C   0  0  0  0  0  0  0  0  0  0  0  0
   -7.0950   -3.6430  -25.8550 H   0  0  0  0  0  0  0  0  0  0  0  0
   -5.4460   -3.9040  -25.3880 H   0  0  0  0  0  0  0  0  0  0  0  0
   -6.4190   -2.2910  -23.9070 H   0  0  0  0  0  0  0  0  0  0  0  0
   -7.7990   -3.3120  -23.5360 H   0  0  0  0  0  0  0  0  0  0  0  0
   -5.0970   -5.6460  -21.9060 H   0  0  0  0  0  0  0  0  0  0  0  0
   -4.4280   -5.1280  -23.4320 H   0  0  0  0  0  0  0  0  0  0  0  0
   -7.2030   -6.2890  -22.9720 H   0  0  0  0  0  0  0  0  0  0  0  0
   -5.8820   -7.1360  -23.7250 H   0  0  0  0  0  0  0  0  0  0  0  0
   -8.8690   -5.3580  -24.4700 H   0  0  0  0  0  0  0  0  0  0  0  0
   -8.4700   -6.9450  -25.1380 H   0  0  0  0  0  0  0  0  0  0  0  0
   -8.5770   -5.5410  -26.2020 H   0  0  0  0  0  0  0  0  0  0  0  0
  1  2  1  0  0  0  0
  1 41  1  0  0  0  0
  1 42  1  0  0  0  0
  1 43  1  0  0  0  0
  2  3  1  0  0  0  0
  2  7  1  0  0  0  0
  2 32  1  0  0  0  0
  3  4  1  0  0  0  0
  3  5  1  0  0  0  0
  3  6  1  0  0  0  0
  7  8  1  0  0  0  0
  7 39  1  0  0  0  0
  7 40  1  0  0  0  0
  8  9  1  0  0  0  0
  8 37  1  0  0  0  0
  8 38  1  0  0  0  0
  9 10  1  0  0  0  0
  9 31  1  0  0  0  0
 10 11  2  0  0  0  0
 10 12  1  0  0  0  0
 12 13  1  0  0  0  0
 12 29  1  0  0  0  0
 12 30  1  0  0  0  0
 13 14  2  0  0  0  0
 13 22  1  0  0  0  0
 14 15  1  0  0  0  0
 14 28  1  0  0  0  0
 15 16  2  0  0  0  0
 16 17  1  0  0  0  0
 16 27  1  0  0  0  0
 17 18  2  0  0  0  0
 17 22  1  0  0  0  0
 18 19  1  0  0  0  0
 18 26  1  0  0  0  0
 19 20  2  0  0  0  0
 19 25  1  0  0  0  0
 20 21  1  0  0  0  0
 20 24  1  0  0  0  0
 21 22  2  0  0  0  0
 21 23  1  0  0  0  0
 31 32  1  0  0  0  0
 31 35  1  0  0  0  0
 31 36  1  0  0  0  0
 32 33  1  0  0  0  0
 32 34  1  0  0  0  0
M  END
>  <MODEL>
       4

$$$$
best_conformers_89.pdb
 OpenBabel01292518153D

 43 45  0  0  0  0  0  0  0  0999 V2000
   -6.7160   -6.9660  -25.4860 C   0  0  0  0  0  0  0  0  0  0  0  0
   -7.2980   -6.1720  -24.3090 C   0  0  0  0  0  0  0  0  0  0  0  0
   -8.7740   -6.5640  -24.1420 C   0  0  0  0  0  0  0  0  0  0  0  0
   -9.3360   -6.4110  -25.0730 H   0  0  0  0  0  0  0  0  0  0  0  0
   -8.8860   -7.6220  -23.8610 H   0  0  0  0  0  0  0  0  0  0  0  0
   -9.2510   -5.9570  -23.3650 H   0  0  0  0  0  0  0  0  0  0  0  0
   -7.1620   -4.6860  -24.6560 C   0  0  0  0  0  0  0  0  0  0  0  0
   -7.1950   -3.7530  -23.4560 C   0  0  0  0  0  0  0  0  0  0  0  0
   -6.1880   -4.1230  -22.4650 N   0  0  0  0  0  0  0  0  0  0  0  0
   -5.8110   -3.3120  -21.4190 C   0  0  0  0  0  0  0  0  0  0  0  0
   -4.7990   -3.5350  -20.7720 O   0  0  0  0  0  0  0  0  0  0  0  0
   -6.7470   -2.1350  -21.0330 C   0  0  0  0  0  0  0  0  0  0  0  0
   -6.1330   -1.2140  -20.0040 C   0  0  0  0  0  0  0  0  0  0  0  0
   -6.5060   -1.2840  -18.6900 C   0  0  0  0  0  0  0  0  0  0  0  0
   -6.0140   -0.5150  -17.6800 N   0  0  0  0  0  0  0  0  0  0  0  0
   -5.0970    0.3670  -18.0020 C   0  0  0  0  0  0  0  0  0  0  0  0
   -4.6040    0.5500  -19.3200 C   0  0  0  0  0  0  0  0  0  0  0  0
   -3.6090    1.5120  -19.6270 C   0  0  0  0  0  0  0  0  0  0  0  0
   -3.1520    1.6630  -20.9070 C   0  0  0  0  0  0  0  0  0  0  0  0
   -3.6740    0.8560  -21.9410 C   0  0  0  0  0  0  0  0  0  0  0  0
   -4.6380   -0.0830  -21.6730 C   0  0  0  0  0  0  0  0  0  0  0  0
   -5.1330   -0.2620  -20.3560 C   0  0  0  0  0  0  0  0  0  0  0  0
   -5.0300   -0.6980  -22.4780 H   0  0  0  0  0  0  0  0  0  0  0  0
   -3.3110    0.9840  -22.9580 H   0  0  0  0  0  0  0  0  0  0  0  0
   -2.3910    2.4070  -21.1430 H   0  0  0  0  0  0  0  0  0  0  0  0
   -3.2170    2.1330  -18.8240 H   0  0  0  0  0  0  0  0  0  0  0  0
   -4.6930    0.9880  -17.1980 H   0  0  0  0  0  0  0  0  0  0  0  0
   -7.2620   -2.0010  -18.3670 H   0  0  0  0  0  0  0  0  0  0  0  0
   -7.6690   -2.5680  -20.6110 H   0  0  0  0  0  0  0  0  0  0  0  0
   -7.0660   -1.5630  -21.9170 H   0  0  0  0  0  0  0  0  0  0  0  0
   -5.5200   -5.4170  -22.6290 C   0  0  0  0  0  0  0  0  0  0  0  0
   -6.5410   -6.4880  -22.9960 C   0  0  0  0  0  0  0  0  0  0  0  0
   -6.0500   -7.4650  -23.0710 H   0  0  0  0  0  0  0  0  0  0  0  0
   -7.2510   -6.5750  -22.1640 H   0  0  0  0  0  0  0  0  0  0  0  0
   -4.7310   -5.3530  -23.3920 H   0  0  0  0  0  0  0  0  0  0  0  0
   -5.0240   -5.6550  -21.6900 H   0  0  0  0  0  0  0  0  0  0  0  0
   -8.1980   -3.7490  -23.0110 H   0  0  0  0  0  0  0  0  0  0  0  0
   -6.9990   -2.7420  -23.8230 H   0  0  0  0  0  0  0  0  0  0  0  0
   -6.2340   -4.5350  -25.2180 H   0  0  0  0  0  0  0  0  0  0  0  0
   -7.9670   -4.4230  -25.3460 H   0  0  0  0  0  0  0  0  0  0  0  0
   -7.2210   -6.7440  -26.4380 H   0  0  0  0  0  0  0  0  0  0  0  0
   -5.6310   -6.8190  -25.6000 H   0  0  0  0  0  0  0  0  0  0  0  0
   -6.8880   -8.0210  -25.3240 H   0  0  0  0  0  0  0  0  0  0  0  0
  1  2  1  0  0  0  0
  1 41  1  0  0  0  0
  1 42  1  0  0  0  0
  1 43  1  0  0  0  0
  2  3  1  0  0  0  0
  2  7  1  0  0  0  0
  2 32  1  0  0  0  0
  3  4  1  0  0  0  0
  3  5  1  0  0  0  0
  3  6  1  0  0  0  0
  7  8  1  0  0  0  0
  7 39  1  0  0  0  0
  7 40  1  0  0  0  0
  8  9  1  0  0  0  0
  8 37  1  0  0  0  0
  8 38  1  0  0  0  0
  9 10  1  0  0  0  0
  9 31  1  0  0  0  0
 10 11  2  0  0  0  0
 10 12  1  0  0  0  0
 12 13  1  0  0  0  0
 12 29  1  0  0  0  0
 12 30  1  0  0  0  0
 13 14  2  0  0  0  0
 13 22  1  0  0  0  0
 14 15  1  0  0  0  0
 14 28  1  0  0  0  0
 15 16  2  0  0  0  0
 16 17  1  0  0  0  0
 16 27  1  0  0  0  0
 17 18  2  0  0  0  0
 17 22  1  0  0  0  0
 18 19  1  0  0  0  0
 18 26  1  0  0  0  0
 19 20  2  0  0  0  0
 19 25  1  0  0  0  0
 20 21  1  0  0  0  0
 20 24  1  0  0  0  0
 21 22  2  0  0  0  0
 21 23  1  0  0  0  0
 31 32  1  0  0  0  0
 31 35  1  0  0  0  0
 31 36  1  0  0  0  0
 32 33  1  0  0  0  0
 32 34  1  0  0  0  0
M  END
>  <MODEL>
       5

$$$$
best_conformers_89.pdb
 OpenBabel01292518153D

 43 45  0  0  0  0  0  0  0  0999 V2000
   -8.0800   -0.4290  -26.7420 C   0  0  0  0  0  0  0  0  0  0  0  0
   -6.8310   -0.3120  -25.8590 C   0  0  0  0  0  0  0  0  0  0  0  0
   -5.6580    0.1230  -26.7420 C   0  0  0  0  0  0  0  0  0  0  0  0
   -5.4700   -0.6060  -27.5390 H   0  0  0  0  0  0  0  0  0  0  0  0
   -5.8560    1.0900  -27.2190 H   0  0  0  0  0  0  0  0  0  0  0  0
   -4.7340    0.2230  -26.1620 H   0  0  0  0  0  0  0  0  0  0  0  0
   -7.0490    0.7280  -24.7510 C   0  0  0  0  0  0  0  0  0  0  0  0
   -8.0370    0.2760  -23.6750 C   0  0  0  0  0  0  0  0  0  0  0  0
   -7.6220   -1.0110  -23.1330 N   0  0  0  0  0  0  0  0  0  0  0  0
   -7.8650   -1.2640  -21.7790 C   0  0  0  0  0  0  0  0  0  0  0  0
   -8.8030   -0.7820  -21.1820 O   0  0  0  0  0  0  0  0  0  0  0  0
   -6.8030   -2.0920  -21.0340 C   0  0  0  0  0  0  0  0  0  0  0  0
   -6.1310   -1.2170  -19.9950 C   0  0  0  0  0  0  0  0  0  0  0  0
   -6.5110   -1.2760  -18.6800 C   0  0  0  0  0  0  0  0  0  0  0  0
   -6.0170   -0.5060  -17.6720 N   0  0  0  0  0  0  0  0  0  0  0  0
   -5.0950    0.3690  -17.9990 C   0  0  0  0  0  0  0  0  0  0  0  0
   -4.6070    0.5540  -19.3210 C   0  0  0  0  0  0  0  0  0  0  0  0
   -3.6180    1.5230  -19.6290 C   0  0  0  0  0  0  0  0  0  0  0  0
   -3.1750    1.6890  -20.9140 C   0  0  0  0  0  0  0  0  0  0  0  0
   -3.7060    0.8870  -21.9500 C   0  0  0  0  0  0  0  0  0  0  0  0
   -4.6620   -0.0600  -21.6770 C   0  0  0  0  0  0  0  0  0  0  0  0
   -5.1420   -0.2540  -20.3550 C   0  0  0  0  0  0  0  0  0  0  0  0
   -5.0540   -0.6670  -22.4870 H   0  0  0  0  0  0  0  0  0  0  0  0
   -3.3510    1.0270  -22.9670 H   0  0  0  0  0  0  0  0  0  0  0  0
   -2.4230    2.4390  -21.1490 H   0  0  0  0  0  0  0  0  0  0  0  0
   -3.2230    2.1410  -18.8260 H   0  0  0  0  0  0  0  0  0  0  0  0
   -4.6890    0.9890  -17.1970 H   0  0  0  0  0  0  0  0  0  0  0  0
   -7.2700   -1.9880  -18.3640 H   0  0  0  0  0  0  0  0  0  0  0  0
   -7.3150   -2.9140  -20.5230 H   0  0  0  0  0  0  0  0  0  0  0  0
   -6.0640   -2.5180  -21.7260 H   0  0  0  0  0  0  0  0  0  0  0  0
   -7.4770   -2.0720  -24.1210 C   0  0  0  0  0  0  0  0  0  0  0  0
   -6.4920   -1.6620  -25.2090 C   0  0  0  0  0  0  0  0  0  0  0  0
   -5.4940   -1.6010  -24.7600 H   0  0  0  0  0  0  0  0  0  0  0  0
   -6.4410   -2.4360  -25.9820 H   0  0  0  0  0  0  0  0  0  0  0  0
   -7.1340   -2.9690  -23.6100 H   0  0  0  0  0  0  0  0  0  0  0  0
   -8.4450   -2.3380  -24.5800 H   0  0  0  0  0  0  0  0  0  0  0  0
   -8.0410    0.9870  -22.8480 H   0  0  0  0  0  0  0  0  0  0  0  0
   -9.0640    0.2630  -24.0690 H   0  0  0  0  0  0  0  0  0  0  0  0
   -7.3840    1.6700  -25.1980 H   0  0  0  0  0  0  0  0  0  0  0  0
   -6.0880    0.9470  -24.2670 H   0  0  0  0  0  0  0  0  0  0  0  0
   -8.9680   -0.7320  -26.1830 H   0  0  0  0  0  0  0  0  0  0  0  0
   -7.9270   -1.1660  -27.5370 H   0  0  0  0  0  0  0  0  0  0  0  0
   -8.3080    0.5290  -27.2220 H   0  0  0  0  0  0  0  0  0  0  0  0
  1  2  1  0  0  0  0
  1 41  1  0  0  0  0
  1 42  1  0  0  0  0
  1 43  1  0  0  0  0
  2  3  1  0  0  0  0
  2  7  1  0  0  0  0
  2 32  1  0  0  0  0
  3  4  1  0  0  0  0
  3  5  1  0  0  0  0
  3  6  1  0  0  0  0
  7  8  1  0  0  0  0
  7 39  1  0  0  0  0
  7 40  1  0  0  0  0
  8  9  1  0  0  0  0
  8 37  1  0  0  0  0
  8 38  1  0  0  0  0
  9 10  1  0  0  0  0
  9 31  1  0  0  0  0
 10 11  2  0  0  0  0
 10 12  1  0  0  0  0
 12 13  1  0  0  0  0
 12 29  1  0  0  0  0
 12 30  1  0  0  0  0
 13 14  2  0  0  0  0
 13 22  1  0  0  0  0
 14 15  1  0  0  0  0
 14 28  1  0  0  0  0
 15 16  2  0  0  0  0
 16 17  1  0  0  0  0
 16 27  1  0  0  0  0
 17 18  2  0  0  0  0
 17 22  1  0  0  0  0
 18 19  1  0  0  0  0
 18 26  1  0  0  0  0
 19 20  2  0  0  0  0
 19 25  1  0  0  0  0
 20 21  1  0  0  0  0
 20 24  1  0  0  0  0
 21 22  2  0  0  0  0
 21 23  1  0  0  0  0
 31 32  1  0  0  0  0
 31 35  1  0  0  0  0
 31 36  1  0  0  0  0
 32 33  1  0  0  0  0
 32 34  1  0  0  0  0
M  END
>  <MODEL>
       6

$$$$
best_conformers_89.pdb
 OpenBabel01292518153D

 43 45  0  0  0  0  0  0  0  0999 V2000
   -5.6580    0.1230  -26.7420 C   0  0  0  0  0  0  0  0  0  0  0  0
   -6.8310   -0.3120  -25.8590 C   0  0  0  0  0  0  0  0  0  0  0  0
   -8.0800   -0.4290  -26.7420 C   0  0  0  0  0  0  0  0  0  0  0  0
   -8.9680   -0.7320  -26.1830 H   0  0  0  0  0  0  0  0  0  0  0  0
   -7.9270   -1.1660  -27.5370 H   0  0  0  0  0  0  0  0  0  0  0  0
   -8.3080    0.5290  -27.2220 H   0  0  0  0  0  0  0  0  0  0  0  0
   -6.4920   -1.6620  -25.2090 C   0  0  0  0  0  0  0  0  0  0  0  0
   -7.4770   -2.0720  -24.1210 C   0  0  0  0  0  0  0  0  0  0  0  0
   -7.6220   -1.0110  -23.1330 N   0  0  0  0  0  0  0  0  0  0  0  0
   -7.8650   -1.2640  -21.7790 C   0  0  0  0  0  0  0  0  0  0  0  0
   -8.8030   -0.7820  -21.1820 O   0  0  0  0  0  0  0  0  0  0  0  0
   -6.8030   -2.0920  -21.0340 C   0  0  0  0  0  0  0  0  0  0  0  0
   -6.1310   -1.2170  -19.9950 C   0  0  0  0  0  0  0  0  0  0  0  0
   -6.5110   -1.2760  -18.6800 C   0  0  0  0  0  0  0  0  0  0  0  0
   -6.0170   -0.5060  -17.6720 N   0  0  0  0  0  0  0  0  0  0  0  0
   -5.0950    0.3690  -17.9990 C   0  0  0  0  0  0  0  0  0  0  0  0
   -4.6070    0.5540  -19.3210 C   0  0  0  0  0  0  0  0  0  0  0  0
   -3.6180    1.5230  -19.6290 C   0  0  0  0  0  0  0  0  0  0  0  0
   -3.1750    1.6890  -20.9140 C   0  0  0  0  0  0  0  0  0  0  0  0
   -3.7060    0.8870  -21.9500 C   0  0  0  0  0  0  0  0  0  0  0  0
   -4.6620   -0.0600  -21.6770 C   0  0  0  0  0  0  0  0  0  0  0  0
   -5.1420   -0.2540  -20.3550 C   0  0  0  0  0  0  0  0  0  0  0  0
   -5.0540   -0.6670  -22.4870 H   0  0  0  0  0  0  0  0  0  0  0  0
   -3.3510    1.0270  -22.9670 H   0  0  0  0  0  0  0  0  0  0  0  0
   -2.4230    2.4390  -21.1490 H   0  0  0  0  0  0  0  0  0  0  0  0
   -3.2230    2.1410  -18.8260 H   0  0  0  0  0  0  0  0  0  0  0  0
   -4.6890    0.9890  -17.1970 H   0  0  0  0  0  0  0  0  0  0  0  0
   -7.2700   -1.9880  -18.3640 H   0  0  0  0  0  0  0  0  0  0  0  0
   -7.3150   -2.9140  -20.5230 H   0  0  0  0  0  0  0  0  0  0  0  0
   -6.0640   -2.5180  -21.7260 H   0  0  0  0  0  0  0  0  0  0  0  0
   -8.0370    0.2760  -23.6750 C   0  0  0  0  0  0  0  0  0  0  0  0
   -7.0490    0.7280  -24.7510 C   0  0  0  0  0  0  0  0  0  0  0  0
   -7.3840    1.6700  -25.1980 H   0  0  0  0  0  0  0  0  0  0  0  0
   -6.0880    0.9470  -24.2670 H   0  0  0  0  0  0  0  0  0  0  0  0
   -9.0640    0.2630  -24.0690 H   0  0  0  0  0  0  0  0  0  0  0  0
   -8.0410    0.9870  -22.8480 H   0  0  0  0  0  0  0  0  0  0  0  0
   -8.4450   -2.3380  -24.5800 H   0  0  0  0  0  0  0  0  0  0  0  0
   -7.1340   -2.9690  -23.6100 H   0  0  0  0  0  0  0  0  0  0  0  0
   -5.4940   -1.6010  -24.7600 H   0  0  0  0  0  0  0  0  0  0  0  0
   -6.4410   -2.4360  -25.9820 H   0  0  0  0  0  0  0  0  0  0  0  0
   -4.7340    0.2230  -26.1620 H   0  0  0  0  0  0  0  0  0  0  0  0
   -5.8560    1.0900  -27.2190 H   0  0  0  0  0  0  0  0  0  0  0  0
   -5.4700   -0.6060  -27.5390 H   0  0  0  0  0  0  0  0  0  0  0  0
  1  2  1  0  0  0  0
  1 41  1  0  0  0  0
  1 42  1  0  0  0  0
  1 43  1  0  0  0  0
  2  3  1  0  0  0  0
  2  7  1  0  0  0  0
  2 32  1  0  0  0  0
  3  4  1  0  0  0  0
  3  5  1  0  0  0  0
  3  6  1  0  0  0  0
  7  8  1  0  0  0  0
  7 39  1  0  0  0  0
  7 40  1  0  0  0  0
  8  9  1  0  0  0  0
  8 37  1  0  0  0  0
  8 38  1  0  0  0  0
  9 10  1  0  0  0  0
  9 31  1  0  0  0  0
 10 11  2  0  0  0  0
 10 12  1  0  0  0  0
 12 13  1  0  0  0  0
 12 29  1  0  0  0  0
 12 30  1  0  0  0  0
 13 14  2  0  0  0  0
 13 22  1  0  0  0  0
 14 15  1  0  0  0  0
 14 28  1  0  0  0  0
 15 16  2  0  0  0  0
 16 17  1  0  0  0  0
 16 27  1  0  0  0  0
 17 18  2  0  0  0  0
 17 22  1  0  0  0  0
 18 19  1  0  0  0  0
 18 26  1  0  0  0  0
 19 20  2  0  0  0  0
 19 25  1  0  0  0  0
 20 21  1  0  0  0  0
 20 24  1  0  0  0  0
 21 22  2  0  0  0  0
 21 23  1  0  0  0  0
 31 32  1  0  0  0  0
 31 35  1  0  0  0  0
 31 36  1  0  0  0  0
 32 33  1  0  0  0  0
 32 34  1  0  0  0  0
M  END
>  <MODEL>
       7

$$$$
best_conformers_89.pdb
 OpenBabel01292518153D

 43 45  0  0  0  0  0  0  0  0999 V2000
   -8.0800   -0.4290  -26.7420 C   0  0  0  0  0  0  0  0  0  0  0  0
   -6.8310   -0.3120  -25.8590 C   0  0  0  0  0  0  0  0  0  0  0  0
   -5.6580    0.1240  -26.7420 C   0  0  0  0  0  0  0  0  0  0  0  0
   -5.8560    1.0910  -27.2190 H   0  0  0  0  0  0  0  0  0  0  0  0
   -4.7340    0.2230  -26.1620 H   0  0  0  0  0  0  0  0  0  0  0  0
   -5.4700   -0.6060  -27.5390 H   0  0  0  0  0  0  0  0  0  0  0  0
   -6.4920   -1.6610  -25.2090 C   0  0  0  0  0  0  0  0  0  0  0  0
   -7.4770   -2.0710  -24.1210 C   0  0  0  0  0  0  0  0  0  0  0  0
   -7.6220   -1.0100  -23.1330 N   0  0  0  0  0  0  0  0  0  0  0  0
   -7.8650   -1.2640  -21.7790 C   0  0  0  0  0  0  0  0  0  0  0  0
   -8.8030   -0.7820  -21.1820 O   0  0  0  0  0  0  0  0  0  0  0  0
   -6.8030   -2.0920  -21.0340 C   0  0  0  0  0  0  0  0  0  0  0  0
   -6.1310   -1.2170  -19.9950 C   0  0  0  0  0  0  0  0  0  0  0  0
   -6.5110   -1.2760  -18.6800 C   0  0  0  0  0  0  0  0  0  0  0  0
   -6.0170   -0.5060  -17.6720 N   0  0  0  0  0  0  0  0  0  0  0  0
   -5.0950    0.3690  -17.9990 C   0  0  0  0  0  0  0  0  0  0  0  0
   -4.6070    0.5540  -19.3210 C   0  0  0  0  0  0  0  0  0  0  0  0
   -3.6180    1.5230  -19.6290 C   0  0  0  0  0  0  0  0  0  0  0  0
   -3.1750    1.6890  -20.9140 C   0  0  0  0  0  0  0  0  0  0  0  0
   -3.7060    0.8870  -21.9500 C   0  0  0  0  0  0  0  0  0  0  0  0
   -4.6620   -0.0600  -21.6770 C   0  0  0  0  0  0  0  0  0  0  0  0
   -5.1420   -0.2540  -20.3550 C   0  0  0  0  0  0  0  0  0  0  0  0
   -5.0540   -0.6670  -22.4870 H   0  0  0  0  0  0  0  0  0  0  0  0
   -3.3510    1.0270  -22.9670 H   0  0  0  0  0  0  0  0  0  0  0  0
   -2.4230    2.4390  -21.1490 H   0  0  0  0  0  0  0  0  0  0  0  0
   -3.2230    2.1410  -18.8260 H   0  0  0  0  0  0  0  0  0  0  0  0
   -4.6890    0.9890  -17.1970 H   0  0  0  0  0  0  0  0  0  0  0  0
   -7.2700   -1.9880  -18.3640 H   0  0  0  0  0  0  0  0  0  0  0  0
   -6.0640   -2.5180  -21.7260 H   0  0  0  0  0  0  0  0  0  0  0  0
   -7.3150   -2.9140  -20.5230 H   0  0  0  0  0  0  0  0  0  0  0  0
   -8.0370    0.2770  -23.6750 C   0  0  0  0  0  0  0  0  0  0  0  0
   -7.0490    0.7280  -24.7510 C   0  0  0  0  0  0  0  0  0  0  0  0
   -6.0880    0.9470  -24.2670 H   0  0  0  0  0  0  0  0  0  0  0  0
   -7.3840    1.6700  -25.1980 H   0  0  0  0  0  0  0  0  0  0  0  0
   -8.0410    0.9870  -22.8480 H   0  0  0  0  0  0  0  0  0  0  0  0
   -9.0640    0.2630  -24.0690 H   0  0  0  0  0  0  0  0  0  0  0  0
   -8.4450   -2.3380  -24.5800 H   0  0  0  0  0  0  0  0  0  0  0  0
   -7.1340   -2.9690  -23.6100 H   0  0  0  0  0  0  0  0  0  0  0  0
   -6.4410   -2.4360  -25.9820 H   0  0  0  0  0  0  0  0  0  0  0  0
   -5.4940   -1.6010  -24.7600 H   0  0  0  0  0  0  0  0  0  0  0  0
   -8.3080    0.5290  -27.2220 H   0  0  0  0  0  0  0  0  0  0  0  0
   -7.9270   -1.1660  -27.5370 H   0  0  0  0  0  0  0  0  0  0  0  0
   -8.9690   -0.7320  -26.1830 H   0  0  0  0  0  0  0  0  0  0  0  0
  1  2  1  0  0  0  0
  1 41  1  0  0  0  0
  1 42  1  0  0  0  0
  1 43  1  0  0  0  0
  2  3  1  0  0  0  0
  2  7  1  0  0  0  0
  2 32  1  0  0  0  0
  3  4  1  0  0  0  0
  3  5  1  0  0  0  0
  3  6  1  0  0  0  0
  7  8  1  0  0  0  0
  7 39  1  0  0  0  0
  7 40  1  0  0  0  0
  8  9  1  0  0  0  0
  8 37  1  0  0  0  0
  8 38  1  0  0  0  0
  9 10  1  0  0  0  0
  9 31  1  0  0  0  0
 10 11  2  0  0  0  0
 10 12  1  0  0  0  0
 12 13  1  0  0  0  0
 12 29  1  0  0  0  0
 12 30  1  0  0  0  0
 13 14  2  0  0  0  0
 13 22  1  0  0  0  0
 14 15  1  0  0  0  0
 14 28  1  0  0  0  0
 15 16  2  0  0  0  0
 16 17  1  0  0  0  0
 16 27  1  0  0  0  0
 17 18  2  0  0  0  0
 17 22  1  0  0  0  0
 18 19  1  0  0  0  0
 18 26  1  0  0  0  0
 19 20  2  0  0  0  0
 19 25  1  0  0  0  0
 20 21  1  0  0  0  0
 20 24  1  0  0  0  0
 21 22  2  0  0  0  0
 21 23  1  0  0  0  0
 31 32  1  0  0  0  0
 31 35  1  0  0  0  0
 31 36  1  0  0  0  0
 32 33  1  0  0  0  0
 32 34  1  0  0  0  0
M  END
>  <MODEL>
       8

$$$$
best_conformers_89.pdb
 OpenBabel01292518153D

 43 45  0  0  0  0  0  0  0  0999 V2000
   -5.6580    0.1230  -26.7420 C   0  0  0  0  0  0  0  0  0  0  0  0
   -6.8310   -0.3120  -25.8590 C   0  0  0  0  0  0  0  0  0  0  0  0
   -8.0800   -0.4290  -26.7420 C   0  0  0  0  0  0  0  0  0  0  0  0
   -8.9690   -0.7320  -26.1830 H   0  0  0  0  0  0  0  0  0  0  0  0
   -8.3080    0.5280  -27.2220 H   0  0  0  0  0  0  0  0  0  0  0  0
   -7.9270   -1.1670  -27.5370 H   0  0  0  0  0  0  0  0  0  0  0  0
   -7.0490    0.7280  -24.7510 C   0  0  0  0  0  0  0  0  0  0  0  0
   -8.0370    0.2760  -23.6750 C   0  0  0  0  0  0  0  0  0  0  0  0
   -7.6220   -1.0110  -23.1330 N   0  0  0  0  0  0  0  0  0  0  0  0
   -7.8650   -1.2640  -21.7790 C   0  0  0  0  0  0  0  0  0  0  0  0
   -8.8030   -0.7820  -21.1820 O   0  0  0  0  0  0  0  0  0  0  0  0
   -6.8030   -2.0920  -21.0340 C   0  0  0  0  0  0  0  0  0  0  0  0
   -6.1310   -1.2170  -19.9950 C   0  0  0  0  0  0  0  0  0  0  0  0
   -6.5110   -1.2760  -18.6800 C   0  0  0  0  0  0  0  0  0  0  0  0
   -6.0170   -0.5060  -17.6720 N   0  0  0  0  0  0  0  0  0  0  0  0
   -5.0950    0.3690  -17.9990 C   0  0  0  0  0  0  0  0  0  0  0  0
   -4.6070    0.5540  -19.3210 C   0  0  0  0  0  0  0  0  0  0  0  0
   -3.6180    1.5230  -19.6290 C   0  0  0  0  0  0  0  0  0  0  0  0
   -3.1750    1.6890  -20.9140 C   0  0  0  0  0  0  0  0  0  0  0  0
   -3.7060    0.8870  -21.9500 C   0  0  0  0  0  0  0  0  0  0  0  0
   -4.6620   -0.0600  -21.6770 C   0  0  0  0  0  0  0  0  0  0  0  0
   -5.1420   -0.2540  -20.3550 C   0  0  0  0  0  0  0  0  0  0  0  0
   -5.0540   -0.6670  -22.4870 H   0  0  0  0  0  0  0  0  0  0  0  0
   -3.3510    1.0270  -22.9670 H   0  0  0  0  0  0  0  0  0  0  0  0
   -2.4230    2.4390  -21.1490 H   0  0  0  0  0  0  0  0  0  0  0  0
   -3.2230    2.1410  -18.8260 H   0  0  0  0  0  0  0  0  0  0  0  0
   -4.6890    0.9890  -17.1970 H   0  0  0  0  0  0  0  0  0  0  0  0
   -7.2700   -1.9880  -18.3640 H   0  0  0  0  0  0  0  0  0  0  0  0
   -6.0640   -2.5180  -21.7260 H   0  0  0  0  0  0  0  0  0  0  0  0
   -7.3150   -2.9150  -20.5230 H   0  0  0  0  0  0  0  0  0  0  0  0
   -7.4770   -2.0720  -24.1210 C   0  0  0  0  0  0  0  0  0  0  0  0
   -6.4920   -1.6620  -25.2090 C   0  0  0  0  0  0  0  0  0  0  0  0
   -5.4940   -1.6010  -24.7600 H   0  0  0  0  0  0  0  0  0  0  0  0
   -6.4410   -2.4360  -25.9820 H   0  0  0  0  0  0  0  0  0  0  0  0
   -8.4450   -2.3380  -24.5800 H   0  0  0  0  0  0  0  0  0  0  0  0
   -7.1340   -2.9690  -23.6100 H   0  0  0  0  0  0  0  0  0  0  0  0
   -8.0410    0.9870  -22.8480 H   0  0  0  0  0  0  0  0  0  0  0  0
   -9.0640    0.2630  -24.0690 H   0  0  0  0  0  0  0  0  0  0  0  0
   -7.3840    1.6700  -25.1980 H   0  0  0  0  0  0  0  0  0  0  0  0
   -6.0880    0.9470  -24.2670 H   0  0  0  0  0  0  0  0  0  0  0  0
   -5.8560    1.0900  -27.2190 H   0  0  0  0  0  0  0  0  0  0  0  0
   -5.4700   -0.6060  -27.5390 H   0  0  0  0  0  0  0  0  0  0  0  0
   -4.7340    0.2230  -26.1620 H   0  0  0  0  0  0  0  0  0  0  0  0
  1  2  1  0  0  0  0
  1 41  1  0  0  0  0
  1 42  1  0  0  0  0
  1 43  1  0  0  0  0
  2  3  1  0  0  0  0
  2  7  1  0  0  0  0
  2 32  1  0  0  0  0
  3  4  1  0  0  0  0
  3  5  1  0  0  0  0
  3  6  1  0  0  0  0
  7  8  1  0  0  0  0
  7 39  1  0  0  0  0
  7 40  1  0  0  0  0
  8  9  1  0  0  0  0
  8 37  1  0  0  0  0
  8 38  1  0  0  0  0
  9 10  1  0  0  0  0
  9 31  1  0  0  0  0
 10 11  2  0  0  0  0
 10 12  1  0  0  0  0
 12 13  1  0  0  0  0
 12 29  1  0  0  0  0
 12 30  1  0  0  0  0
 13 14  2  0  0  0  0
 13 22  1  0  0  0  0
 14 15  1  0  0  0  0
 14 28  1  0  0  0  0
 15 16  2  0  0  0  0
 16 17  1  0  0  0  0
 16 27  1  0  0  0  0
 17 18  2  0  0  0  0
 17 22  1  0  0  0  0
 18 19  1  0  0  0  0
 18 26  1  0  0  0  0
 19 20  2  0  0  0  0
 19 25  1  0  0  0  0
 20 21  1  0  0  0  0
 20 24  1  0  0  0  0
 21 22  2  0  0  0  0
 21 23  1  0  0  0  0
 31 32  1  0  0  0  0
 31 35  1  0  0  0  0
 31 36  1  0  0  0  0
 32 33  1  0  0  0  0
 32 34  1  0  0  0  0
M  END
>  <MODEL>
       9

$$$$
best_conformers_89.pdb
 OpenBabel01292518153D

 43 45  0  0  0  0  0  0  0  0999 V2000
   -9.3940   -4.8030  -25.4470 C   0  0  0  0  0  0  0  0  0  0  0  0
   -9.1750   -3.2840  -25.5370 C   0  0  0  0  0  0  0  0  0  0  0  0
   -9.5010   -2.8070  -26.9540 C   0  0  0  0  0  0  0  0  0  0  0  0
  -10.5580   -2.9630  -27.1590 H   0  0  0  0  0  0  0  0  0  0  0  0
   -8.9180   -3.3540  -27.7110 H   0  0  0  0  0  0  0  0  0  0  0  0
   -9.2660   -1.7370  -27.0340 H   0  0  0  0  0  0  0  0  0  0  0  0
  -10.0590   -2.5730  -24.4770 C   0  0  0  0  0  0  0  0  0  0  0  0
   -9.3540   -1.3930  -23.7990 C   0  0  0  0  0  0  0  0  0  0  0  0
   -8.1360   -1.8610  -23.1410 N   0  0  0  0  0  0  0  0  0  0  0  0
   -7.8410   -1.3520  -21.9020 C   0  0  0  0  0  0  0  0  0  0  0  0
   -8.4500   -0.3990  -21.4390 O   0  0  0  0  0  0  0  0  0  0  0  0
   -6.7790   -2.0840  -21.0590 C   0  0  0  0  0  0  0  0  0  0  0  0
   -6.1380   -1.2050  -20.0170 C   0  0  0  0  0  0  0  0  0  0  0  0
   -6.5220   -1.2760  -18.7010 C   0  0  0  0  0  0  0  0  0  0  0  0
   -6.0290   -0.5120  -17.6880 N   0  0  0  0  0  0  0  0  0  0  0  0
   -5.1060    0.3620  -18.0030 C   0  0  0  0  0  0  0  0  0  0  0  0
   -4.6060    0.5520  -19.3220 C   0  0  0  0  0  0  0  0  0  0  0  0
   -3.6160    1.5170  -19.6260 C   0  0  0  0  0  0  0  0  0  0  0  0
   -3.1720    1.6790  -20.9080 C   0  0  0  0  0  0  0  0  0  0  0  0
   -3.7010    0.8830  -21.9500 C   0  0  0  0  0  0  0  0  0  0  0  0
   -4.6600   -0.0590  -21.6820 C   0  0  0  0  0  0  0  0  0  0  0  0
   -5.1390   -0.2510  -20.3600 C   0  0  0  0  0  0  0  0  0  0  0  0
   -5.0650   -0.6610  -22.4920 H   0  0  0  0  0  0  0  0  0  0  0  0
   -3.3510    1.0230  -22.9680 H   0  0  0  0  0  0  0  0  0  0  0  0
   -2.4200    2.4270  -21.1380 H   0  0  0  0  0  0  0  0  0  0  0  0
   -3.2310    2.1300  -18.8130 H   0  0  0  0  0  0  0  0  0  0  0  0
   -4.7030    0.9750  -17.1930 H   0  0  0  0  0  0  0  0  0  0  0  0
   -7.2780   -1.9930  -18.3840 H   0  0  0  0  0  0  0  0  0  0  0  0
   -7.3130   -2.8950  -20.5450 H   0  0  0  0  0  0  0  0  0  0  0  0
   -6.0300   -2.5770  -21.6900 H   0  0  0  0  0  0  0  0  0  0  0  0
   -7.2820   -2.8020  -23.8580 C   0  0  0  0  0  0  0  0  0  0  0  0
   -7.7040   -2.9060  -25.3180 C   0  0  0  0  0  0  0  0  0  0  0  0
   -7.0860   -3.6490  -25.8310 H   0  0  0  0  0  0  0  0  0  0  0  0
   -7.5300   -1.9370  -25.8100 H   0  0  0  0  0  0  0  0  0  0  0  0
   -6.2430   -2.4440  -23.8350 H   0  0  0  0  0  0  0  0  0  0  0  0
   -7.3200   -3.7970  -23.3890 H   0  0  0  0  0  0  0  0  0  0  0  0
   -9.9690   -0.9470  -23.0160 H   0  0  0  0  0  0  0  0  0  0  0  0
   -9.1210   -0.5940  -24.5210 H   0  0  0  0  0  0  0  0  0  0  0  0
  -10.3310   -3.2970  -23.6920 H   0  0  0  0  0  0  0  0  0  0  0  0
  -10.9930   -2.2370  -24.9440 H   0  0  0  0  0  0  0  0  0  0  0  0
   -8.8370   -5.3050  -26.2480 H   0  0  0  0  0  0  0  0  0  0  0  0
   -9.0640   -5.2110  -24.4800 H   0  0  0  0  0  0  0  0  0  0  0  0
  -10.4590   -5.0400  -25.5790 H   0  0  0  0  0  0  0  0  0  0  0  0
  1  2  1  0  0  0  0
  1 41  1  0  0  0  0
  1 42  1  0  0  0  0
  1 43  1  0  0  0  0
  2  3  1  0  0  0  0
  2  7  1  0  0  0  0
  2 32  1  0  0  0  0
  3  4  1  0  0  0  0
  3  5  1  0  0  0  0
  3  6  1  0  0  0  0
  7  8  1  0  0  0  0
  7 39  1  0  0  0  0
  7 40  1  0  0  0  0
  8  9  1  0  0  0  0
  8 37  1  0  0  0  0
  8 38  1  0  0  0  0
  9 10  1  0  0  0  0
  9 31  1  0  0  0  0
 10 11  2  0  0  0  0
 10 12  1  0  0  0  0
 12 13  1  0  0  0  0
 12 29  1  0  0  0  0
 12 30  1  0  0  0  0
 13 14  2  0  0  0  0
 13 22  1  0  0  0  0
 14 15  1  0  0  0  0
 14 28  1  0  0  0  0
 15 16  2  0  0  0  0
 16 17  1  0  0  0  0
 16 27  1  0  0  0  0
 17 18  2  0  0  0  0
 17 22  1  0  0  0  0
 18 19  1  0  0  0  0
 18 26  1  0  0  0  0
 19 20  2  0  0  0  0
 19 25  1  0  0  0  0
 20 21  1  0  0  0  0
 20 24  1  0  0  0  0
 21 22  2  0  0  0  0
 21 23  1  0  0  0  0
 31 32  1  0  0  0  0
 31 35  1  0  0  0  0
 31 36  1  0  0  0  0
 32 33  1  0  0  0  0
 32 34  1  0  0  0  0
M  END
>  <MODEL>
      10

$$$$
best_conformers_89.pdb
 OpenBabel01292518153D

 43 45  0  0  0  0  0  0  0  0999 V2000
   -9.5090   -2.8250  -26.9450 C   0  0  0  0  0  0  0  0  0  0  0  0
   -9.1810   -3.2970  -25.5260 C   0  0  0  0  0  0  0  0  0  0  0  0
   -9.4000   -4.8160  -25.4310 C   0  0  0  0  0  0  0  0  0  0  0  0
   -9.0690   -5.2220  -24.4630 H   0  0  0  0  0  0  0  0  0  0  0  0
   -8.8450   -5.3200  -26.2320 H   0  0  0  0  0  0  0  0  0  0  0  0
  -10.4660   -5.0530  -25.5600 H   0  0  0  0  0  0  0  0  0  0  0  0
  -10.0640   -2.5830  -24.4670 C   0  0  0  0  0  0  0  0  0  0  0  0
   -9.3590   -1.4010  -23.7950 C   0  0  0  0  0  0  0  0  0  0  0  0
   -8.1390   -1.8660  -23.1390 N   0  0  0  0  0  0  0  0  0  0  0  0
   -7.8420   -1.3540  -21.9010 C   0  0  0  0  0  0  0  0  0  0  0  0
   -8.4490   -0.4000  -21.4400 O   0  0  0  0  0  0  0  0  0  0  0  0
   -6.7780   -2.0850  -21.0590 C   0  0  0  0  0  0  0  0  0  0  0  0
   -6.1370   -1.2050  -20.0160 C   0  0  0  0  0  0  0  0  0  0  0  0
   -6.5220   -1.2760  -18.7010 C   0  0  0  0  0  0  0  0  0  0  0  0
   -6.0280   -0.5120  -17.6890 N   0  0  0  0  0  0  0  0  0  0  0  0
   -5.1060    0.3620  -18.0030 C   0  0  0  0  0  0  0  0  0  0  0  0
   -4.6060    0.5520  -19.3220 C   0  0  0  0  0  0  0  0  0  0  0  0
   -3.6160    1.5170  -19.6260 C   0  0  0  0  0  0  0  0  0  0  0  0
   -3.1720    1.6790  -20.9080 C   0  0  0  0  0  0  0  0  0  0  0  0
   -3.7010    0.8830  -21.9500 C   0  0  0  0  0  0  0  0  0  0  0  0
   -4.6600   -0.0590  -21.6820 C   0  0  0  0  0  0  0  0  0  0  0  0
   -5.1390   -0.2510  -20.3610 C   0  0  0  0  0  0  0  0  0  0  0  0
   -5.0650   -0.6610  -22.4920 H   0  0  0  0  0  0  0  0  0  0  0  0
   -3.3510    1.0230  -22.9680 H   0  0  0  0  0  0  0  0  0  0  0  0
   -2.4190    2.4270  -21.1380 H   0  0  0  0  0  0  0  0  0  0  0  0
   -3.2310    2.1300  -18.8130 H   0  0  0  0  0  0  0  0  0  0  0  0
   -4.7030    0.9750  -17.1930 H   0  0  0  0  0  0  0  0  0  0  0  0
   -7.2780   -1.9930  -18.3840 H   0  0  0  0  0  0  0  0  0  0  0  0
   -7.3110   -2.8960  -20.5440 H   0  0  0  0  0  0  0  0  0  0  0  0
   -6.0290   -2.5760  -21.6900 H   0  0  0  0  0  0  0  0  0  0  0  0
   -7.2860   -2.8080  -23.8540 C   0  0  0  0  0  0  0  0  0  0  0  0
   -7.7100   -2.9180  -25.3120 C   0  0  0  0  0  0  0  0  0  0  0  0
   -7.0930   -3.6620  -25.8260 H   0  0  0  0  0  0  0  0  0  0  0  0
   -7.5400   -1.9500  -25.8080 H   0  0  0  0  0  0  0  0  0  0  0  0
   -7.3220   -3.8020  -23.3830 H   0  0  0  0  0  0  0  0  0  0  0  0
   -6.2470   -2.4490  -23.8350 H   0  0  0  0  0  0  0  0  0  0  0  0
   -9.9720   -0.9520  -23.0120 H   0  0  0  0  0  0  0  0  0  0  0  0
   -9.1280   -0.6030  -24.5200 H   0  0  0  0  0  0  0  0  0  0  0  0
  -10.3350   -3.3040  -23.6800 H   0  0  0  0  0  0  0  0  0  0  0  0
  -10.9990   -2.2490  -24.9340 H   0  0  0  0  0  0  0  0  0  0  0  0
   -9.2770   -1.7550  -27.0270 H   0  0  0  0  0  0  0  0  0  0  0  0
  -10.5670   -2.9850  -27.1440 H   0  0  0  0  0  0  0  0  0  0  0  0
   -8.9260   -3.3720  -27.7000 H   0  0  0  0  0  0  0  0  0  0  0  0
  1  2  1  0  0  0  0
  1 41  1  0  0  0  0
  1 42  1  0  0  0  0
  1 43  1  0  0  0  0
  2  3  1  0  0  0  0
  2  7  1  0  0  0  0
  2 32  1  0  0  0  0
  3  4  1  0  0  0  0
  3  5  1  0  0  0  0
  3  6  1  0  0  0  0
  7  8  1  0  0  0  0
  7 39  1  0  0  0  0
  7 40  1  0  0  0  0
  8  9  1  0  0  0  0
  8 37  1  0  0  0  0
  8 38  1  0  0  0  0
  9 10  1  0  0  0  0
  9 31  1  0  0  0  0
 10 11  2  0  0  0  0
 10 12  1  0  0  0  0
 12 13  1  0  0  0  0
 12 29  1  0  0  0  0
 12 30  1  0  0  0  0
 13 14  2  0  0  0  0
 13 22  1  0  0  0  0
 14 15  1  0  0  0  0
 14 28  1  0  0  0  0
 15 16  2  0  0  0  0
 16 17  1  0  0  0  0
 16 27  1  0  0  0  0
 17 18  2  0  0  0  0
 17 22  1  0  0  0  0
 18 19  1  0  0  0  0
 18 26  1  0  0  0  0
 19 20  2  0  0  0  0
 19 25  1  0  0  0  0
 20 21  1  0  0  0  0
 20 24  1  0  0  0  0
 21 22  2  0  0  0  0
 21 23  1  0  0  0  0
 31 32  1  0  0  0  0
 31 35  1  0  0  0  0
 31 36  1  0  0  0  0
 32 33  1  0  0  0  0
 32 34  1  0  0  0  0
M  END
>  <MODEL>
      11

$$$$
best_conformers_89.pdb
 OpenBabel01292518153D

 43 45  0  0  0  0  0  0  0  0999 V2000
   -9.5050   -2.7980  -26.9530 C   0  0  0  0  0  0  0  0  0  0  0  0
   -9.1790   -3.2780  -25.5370 C   0  0  0  0  0  0  0  0  0  0  0  0
   -9.3970   -4.7980  -25.4510 C   0  0  0  0  0  0  0  0  0  0  0  0
   -9.0660   -5.2090  -24.4840 H   0  0  0  0  0  0  0  0  0  0  0  0
  -10.4620   -5.0360  -25.5820 H   0  0  0  0  0  0  0  0  0  0  0  0
   -8.8400   -5.2980  -26.2530 H   0  0  0  0  0  0  0  0  0  0  0  0
   -7.7070   -2.9000  -25.3180 C   0  0  0  0  0  0  0  0  0  0  0  0
   -7.2850   -2.7980  -23.8580 C   0  0  0  0  0  0  0  0  0  0  0  0
   -8.1400   -1.8580  -23.1400 N   0  0  0  0  0  0  0  0  0  0  0  0
   -7.8430   -1.3490  -21.9000 C   0  0  0  0  0  0  0  0  0  0  0  0
   -8.4500   -0.3980  -21.4370 O   0  0  0  0  0  0  0  0  0  0  0  0
   -6.7790   -2.0840  -21.0590 C   0  0  0  0  0  0  0  0  0  0  0  0
   -6.1380   -1.2050  -20.0160 C   0  0  0  0  0  0  0  0  0  0  0  0
   -6.5220   -1.2760  -18.7010 C   0  0  0  0  0  0  0  0  0  0  0  0
   -6.0280   -0.5120  -17.6880 N   0  0  0  0  0  0  0  0  0  0  0  0
   -5.1050    0.3620  -18.0040 C   0  0  0  0  0  0  0  0  0  0  0  0
   -4.6060    0.5520  -19.3210 C   0  0  0  0  0  0  0  0  0  0  0  0
   -3.6150    1.5170  -19.6260 C   0  0  0  0  0  0  0  0  0  0  0  0
   -3.1730    1.6790  -20.9080 C   0  0  0  0  0  0  0  0  0  0  0  0
   -3.7010    0.8830  -21.9490 C   0  0  0  0  0  0  0  0  0  0  0  0
   -4.6600   -0.0590  -21.6820 C   0  0  0  0  0  0  0  0  0  0  0  0
   -5.1390   -0.2500  -20.3600 C   0  0  0  0  0  0  0  0  0  0  0  0
   -5.0650   -0.6610  -22.4920 H   0  0  0  0  0  0  0  0  0  0  0  0
   -3.3510    1.0230  -22.9680 H   0  0  0  0  0  0  0  0  0  0  0  0
   -2.4200    2.4280  -21.1380 H   0  0  0  0  0  0  0  0  0  0  0  0
   -3.2310    2.1300  -18.8140 H   0  0  0  0  0  0  0  0  0  0  0  0
   -4.7020    0.9750  -17.1930 H   0  0  0  0  0  0  0  0  0  0  0  0
   -7.2780   -1.9930  -18.3840 H   0  0  0  0  0  0  0  0  0  0  0  0
   -7.3130   -2.8950  -20.5440 H   0  0  0  0  0  0  0  0  0  0  0  0
   -6.0300   -2.5760  -21.6900 H   0  0  0  0  0  0  0  0  0  0  0  0
   -9.3590   -1.3910  -23.7960 C   0  0  0  0  0  0  0  0  0  0  0  0
  -10.0630   -2.5710  -24.4740 C   0  0  0  0  0  0  0  0  0  0  0  0
  -10.9980   -2.2350  -24.9400 H   0  0  0  0  0  0  0  0  0  0  0  0
  -10.3340   -3.2960  -23.6910 H   0  0  0  0  0  0  0  0  0  0  0  0
   -9.9750   -0.9470  -23.0120 H   0  0  0  0  0  0  0  0  0  0  0  0
   -9.1280   -0.5900  -24.5170 H   0  0  0  0  0  0  0  0  0  0  0  0
   -6.2470   -2.4390  -23.8360 H   0  0  0  0  0  0  0  0  0  0  0  0
   -7.3220   -3.7930  -23.3920 H   0  0  0  0  0  0  0  0  0  0  0  0
   -7.0900   -3.6420  -25.8340 H   0  0  0  0  0  0  0  0  0  0  0  0
   -7.5350   -1.9310  -25.8100 H   0  0  0  0  0  0  0  0  0  0  0  0
  -10.5630   -2.9500  -27.1560 H   0  0  0  0  0  0  0  0  0  0  0  0
   -9.2670   -1.7290  -27.0280 H   0  0  0  0  0  0  0  0  0  0  0  0
   -8.9240   -3.3430  -27.7110 H   0  0  0  0  0  0  0  0  0  0  0  0
  1  2  1  0  0  0  0
  1 41  1  0  0  0  0
  1 42  1  0  0  0  0
  1 43  1  0  0  0  0
  2  3  1  0  0  0  0
  2  7  1  0  0  0  0
  2 32  1  0  0  0  0
  3  4  1  0  0  0  0
  3  5  1  0  0  0  0
  3  6  1  0  0  0  0
  7  8  1  0  0  0  0
  7 39  1  0  0  0  0
  7 40  1  0  0  0  0
  8  9  1  0  0  0  0
  8 37  1  0  0  0  0
  8 38  1  0  0  0  0
  9 10  1  0  0  0  0
  9 31  1  0  0  0  0
 10 11  2  0  0  0  0
 10 12  1  0  0  0  0
 12 13  1  0  0  0  0
 12 29  1  0  0  0  0
 12 30  1  0  0  0  0
 13 14  2  0  0  0  0
 13 22  1  0  0  0  0
 14 15  1  0  0  0  0
 14 28  1  0  0  0  0
 15 16  2  0  0  0  0
 16 17  1  0  0  0  0
 16 27  1  0  0  0  0
 17 18  2  0  0  0  0
 17 22  1  0  0  0  0
 18 19  1  0  0  0  0
 18 26  1  0  0  0  0
 19 20  2  0  0  0  0
 19 25  1  0  0  0  0
 20 21  1  0  0  0  0
 20 24  1  0  0  0  0
 21 22  2  0  0  0  0
 21 23  1  0  0  0  0
 31 32  1  0  0  0  0
 31 35  1  0  0  0  0
 31 36  1  0  0  0  0
 32 33  1  0  0  0  0
 32 34  1  0  0  0  0
M  END
>  <MODEL>
      12

$$$$
best_conformers_89.pdb
 OpenBabel01292518153D

 43 45  0  0  0  0  0  0  0  0999 V2000
   -9.3980   -4.7990  -25.4490 C   0  0  0  0  0  0  0  0  0  0  0  0
   -9.1790   -3.2790  -25.5360 C   0  0  0  0  0  0  0  0  0  0  0  0
   -9.5060   -2.7990  -26.9520 C   0  0  0  0  0  0  0  0  0  0  0  0
   -9.2680   -1.7300  -27.0280 H   0  0  0  0  0  0  0  0  0  0  0  0
  -10.5640   -2.9510  -27.1540 H   0  0  0  0  0  0  0  0  0  0  0  0
   -8.9250   -3.3450  -27.7100 H   0  0  0  0  0  0  0  0  0  0  0  0
   -7.7080   -2.9010  -25.3180 C   0  0  0  0  0  0  0  0  0  0  0  0
   -7.2860   -2.7980  -23.8580 C   0  0  0  0  0  0  0  0  0  0  0  0
   -8.1400   -1.8590  -23.1400 N   0  0  0  0  0  0  0  0  0  0  0  0
   -7.8430   -1.3490  -21.9000 C   0  0  0  0  0  0  0  0  0  0  0  0
   -8.4490   -0.3980  -21.4370 O   0  0  0  0  0  0  0  0  0  0  0  0
   -6.7790   -2.0840  -21.0590 C   0  0  0  0  0  0  0  0  0  0  0  0
   -6.1380   -1.2050  -20.0150 C   0  0  0  0  0  0  0  0  0  0  0  0
   -6.5220   -1.2760  -18.7010 C   0  0  0  0  0  0  0  0  0  0  0  0
   -6.0280   -0.5120  -17.6880 N   0  0  0  0  0  0  0  0  0  0  0  0
   -5.1050    0.3620  -18.0040 C   0  0  0  0  0  0  0  0  0  0  0  0
   -4.6060    0.5520  -19.3210 C   0  0  0  0  0  0  0  0  0  0  0  0
   -3.6150    1.5180  -19.6260 C   0  0  0  0  0  0  0  0  0  0  0  0
   -3.1730    1.6790  -20.9080 C   0  0  0  0  0  0  0  0  0  0  0  0
   -3.7010    0.8830  -21.9490 C   0  0  0  0  0  0  0  0  0  0  0  0
   -4.6600   -0.0590  -21.6820 C   0  0  0  0  0  0  0  0  0  0  0  0
   -5.1390   -0.2500  -20.3600 C   0  0  0  0  0  0  0  0  0  0  0  0
   -5.0650   -0.6610  -22.4920 H   0  0  0  0  0  0  0  0  0  0  0  0
   -3.3520    1.0230  -22.9680 H   0  0  0  0  0  0  0  0  0  0  0  0
   -2.4200    2.4280  -21.1380 H   0  0  0  0  0  0  0  0  0  0  0  0
   -3.2310    2.1300  -18.8140 H   0  0  0  0  0  0  0  0  0  0  0  0
   -4.7020    0.9750  -17.1930 H   0  0  0  0  0  0  0  0  0  0  0  0
   -7.2780   -1.9930  -18.3840 H   0  0  0  0  0  0  0  0  0  0  0  0
   -6.0300   -2.5760  -21.6900 H   0  0  0  0  0  0  0  0  0  0  0  0
   -7.3130   -2.8950  -20.5440 H   0  0  0  0  0  0  0  0  0  0  0  0
   -9.3590   -1.3920  -23.7950 C   0  0  0  0  0  0  0  0  0  0  0  0
  -10.0630   -2.5710  -24.4740 C   0  0  0  0  0  0  0  0  0  0  0  0
  -10.3350   -3.2960  -23.6900 H   0  0  0  0  0  0  0  0  0  0  0  0
  -10.9990   -2.2360  -24.9390 H   0  0  0  0  0  0  0  0  0  0  0  0
   -9.9750   -0.9470  -23.0110 H   0  0  0  0  0  0  0  0  0  0  0  0
   -9.1290   -0.5910  -24.5170 H   0  0  0  0  0  0  0  0  0  0  0  0
   -6.2470   -2.4400  -23.8360 H   0  0  0  0  0  0  0  0  0  0  0  0
   -7.3230   -3.7940  -23.3910 H   0  0  0  0  0  0  0  0  0  0  0  0
   -7.0900   -3.6430  -25.8330 H   0  0  0  0  0  0  0  0  0  0  0  0
   -7.5360   -1.9320  -25.8100 H   0  0  0  0  0  0  0  0  0  0  0  0
   -9.0670   -5.2100  -24.4830 H   0  0  0  0  0  0  0  0  0  0  0  0
   -8.8410   -5.2990  -26.2520 H   0  0  0  0  0  0  0  0  0  0  0  0
  -10.4630   -5.0370  -25.5810 H   0  0  0  0  0  0  0  0  0  0  0  0
  1  2  1  0  0  0  0
  1 41  1  0  0  0  0
  1 42  1  0  0  0  0
  1 43  1  0  0  0  0
  2  3  1  0  0  0  0
  2  7  1  0  0  0  0
  2 32  1  0  0  0  0
  3  4  1  0  0  0  0
  3  5  1  0  0  0  0
  3  6  1  0  0  0  0
  7  8  1  0  0  0  0
  7 39  1  0  0  0  0
  7 40  1  0  0  0  0
  8  9  1  0  0  0  0
  8 37  1  0  0  0  0
  8 38  1  0  0  0  0
  9 10  1  0  0  0  0
  9 31  1  0  0  0  0
 10 11  2  0  0  0  0
 10 12  1  0  0  0  0
 12 13  1  0  0  0  0
 12 29  1  0  0  0  0
 12 30  1  0  0  0  0
 13 14  2  0  0  0  0
 13 22  1  0  0  0  0
 14 15  1  0  0  0  0
 14 28  1  0  0  0  0
 15 16  2  0  0  0  0
 16 17  1  0  0  0  0
 16 27  1  0  0  0  0
 17 18  2  0  0  0  0
 17 22  1  0  0  0  0
 18 19  1  0  0  0  0
 18 26  1  0  0  0  0
 19 20  2  0  0  0  0
 19 25  1  0  0  0  0
 20 21  1  0  0  0  0
 20 24  1  0  0  0  0
 21 22  2  0  0  0  0
 21 23  1  0  0  0  0
 31 32  1  0  0  0  0
 31 35  1  0  0  0  0
 31 36  1  0  0  0  0
 32 33  1  0  0  0  0
 32 34  1  0  0  0  0
M  END
>  <MODEL>
      13

$$$$
best_conformers_89.pdb
 OpenBabel01292518153D

 43 45  0  0  0  0  0  0  0  0999 V2000
   -9.5810   -5.5220  -24.2130 C   0  0  0  0  0  0  0  0  0  0  0  0
   -8.0990   -5.2300  -24.1370 C   0  0  0  0  0  0  0  0  0  0  0  0
   -7.4890   -5.9100  -25.3690 C   0  0  0  0  0  0  0  0  0  0  0  0
   -7.7370   -6.9770  -25.3120 H   0  0  0  0  0  0  0  0  0  0  0  0
   -7.9630   -5.5130  -26.2750 H   0  0  0  0  0  0  0  0  0  0  0  0
   -6.4030   -5.8130  -25.4620 H   0  0  0  0  0  0  0  0  0  0  0  0
   -7.9060   -3.7130  -24.1250 C   0  0  0  0  0  0  0  0  0  0  0  0
   -6.4640   -3.3340  -23.8070 C   0  0  0  0  0  0  0  0  0  0  0  0
   -6.0190   -3.9450  -22.5700 N   0  0  0  0  0  0  0  0  0  0  0  0
   -5.8090   -3.3150  -21.3630 C   0  0  0  0  0  0  0  0  0  0  0  0
   -5.0220   -3.7540  -20.5440 O   0  0  0  0  0  0  0  0  0  0  0  0
   -6.7160   -2.1200  -21.0360 C   0  0  0  0  0  0  0  0  0  0  0  0
   -6.1250   -1.2040  -20.0080 C   0  0  0  0  0  0  0  0  0  0  0  0
   -6.5020   -1.2850  -18.6910 C   0  0  0  0  0  0  0  0  0  0  0  0
   -6.0180   -0.5180  -17.6780 N   0  0  0  0  0  0  0  0  0  0  0  0
   -5.0990    0.3630  -17.9970 C   0  0  0  0  0  0  0  0  0  0  0  0
   -4.5990    0.5490  -19.3180 C   0  0  0  0  0  0  0  0  0  0  0  0
   -3.6070    1.5130  -19.6210 C   0  0  0  0  0  0  0  0  0  0  0  0
   -3.1520    1.6620  -20.9040 C   0  0  0  0  0  0  0  0  0  0  0  0
   -3.6700    0.8570  -21.9420 C   0  0  0  0  0  0  0  0  0  0  0  0
   -4.6340   -0.0820  -21.6770 C   0  0  0  0  0  0  0  0  0  0  0  0
   -5.1240   -0.2580  -20.3550 C   0  0  0  0  0  0  0  0  0  0  0  0
   -5.0330   -0.6860  -22.4870 H   0  0  0  0  0  0  0  0  0  0  0  0
   -3.3150    0.9900  -22.9600 H   0  0  0  0  0  0  0  0  0  0  0  0
   -2.3990    2.4090  -21.1320 H   0  0  0  0  0  0  0  0  0  0  0  0
   -3.2320    2.1320  -18.8110 H   0  0  0  0  0  0  0  0  0  0  0  0
   -4.7050    0.9820  -17.1890 H   0  0  0  0  0  0  0  0  0  0  0  0
   -7.2590   -2.0030  -18.3790 H   0  0  0  0  0  0  0  0  0  0  0  0
   -7.0410   -1.5960  -21.9430 H   0  0  0  0  0  0  0  0  0  0  0  0
   -7.6240   -2.5640  -20.6100 H   0  0  0  0  0  0  0  0  0  0  0  0
   -6.0930   -5.4000  -22.5680 C   0  0  0  0  0  0  0  0  0  0  0  0
   -7.5400   -5.8410  -22.8360 C   0  0  0  0  0  0  0  0  0  0  0  0
   -8.1820   -5.5410  -21.9920 H   0  0  0  0  0  0  0  0  0  0  0  0
   -7.6080   -6.9320  -22.9170 H   0  0  0  0  0  0  0  0  0  0  0  0
   -5.4270   -5.8020  -23.3450 H   0  0  0  0  0  0  0  0  0  0  0  0
   -5.7200   -5.7230  -21.5900 H   0  0  0  0  0  0  0  0  0  0  0  0
   -6.3150   -2.2480  -23.7570 H   0  0  0  0  0  0  0  0  0  0  0  0
   -5.8130   -3.7270  -24.6050 H   0  0  0  0  0  0  0  0  0  0  0  0
   -8.5770   -3.2840  -23.3650 H   0  0  0  0  0  0  0  0  0  0  0  0
   -8.2070   -3.3180  -25.1040 H   0  0  0  0  0  0  0  0  0  0  0  0
  -10.0910   -5.1260  -23.3350 H   0  0  0  0  0  0  0  0  0  0  0  0
  -10.0430   -5.0620  -25.0920 H   0  0  0  0  0  0  0  0  0  0  0  0
   -9.6660   -6.6040  -24.2720 H   0  0  0  0  0  0  0  0  0  0  0  0
  1  2  1  0  0  0  0
  1 41  1  0  0  0  0
  1 42  1  0  0  0  0
  1 43  1  0  0  0  0
  2  3  1  0  0  0  0
  2  7  1  0  0  0  0
  2 32  1  0  0  0  0
  3  4  1  0  0  0  0
  3  5  1  0  0  0  0
  3  6  1  0  0  0  0
  7  8  1  0  0  0  0
  7 39  1  0  0  0  0
  7 40  1  0  0  0  0
  8  9  1  0  0  0  0
  8 37  1  0  0  0  0
  8 38  1  0  0  0  0
  9 10  1  0  0  0  0
  9 31  1  0  0  0  0
 10 11  2  0  0  0  0
 10 12  1  0  0  0  0
 12 13  1  0  0  0  0
 12 29  1  0  0  0  0
 12 30  1  0  0  0  0
 13 14  2  0  0  0  0
 13 22  1  0  0  0  0
 14 15  1  0  0  0  0
 14 28  1  0  0  0  0
 15 16  2  0  0  0  0
 16 17  1  0  0  0  0
 16 27  1  0  0  0  0
 17 18  2  0  0  0  0
 17 22  1  0  0  0  0
 18 19  1  0  0  0  0
 18 26  1  0  0  0  0
 19 20  2  0  0  0  0
 19 25  1  0  0  0  0
 20 21  1  0  0  0  0
 20 24  1  0  0  0  0
 21 22  2  0  0  0  0
 21 23  1  0  0  0  0
 31 32  1  0  0  0  0
 31 35  1  0  0  0  0
 31 36  1  0  0  0  0
 32 33  1  0  0  0  0
 32 34  1  0  0  0  0
M  END
>  <MODEL>
      14

$$$$
