best_conformers_97.pdb
 OpenBabel01292518153D

 40 43  0  0  1  0  0  0  0  0999 V2000
  -11.6060   -3.4160  -23.7080 C   0  0  0  0  0  0  0  0  0  0  0  0
  -10.3470   -2.5740  -23.5220 C   0  0  2  0  0  0  0  0  0  0  0  0
   -9.9600   -1.8670  -24.8190 C   0  0  0  0  0  0  0  0  0  0  0  0
   -8.7900   -1.0990  -24.6670 O   0  0  0  0  0  0  0  0  0  0  0  0
   -7.6860   -1.9090  -24.3520 C   0  0  0  0  0  0  0  0  0  0  0  0
   -7.8570   -2.6310  -22.9970 C   0  0  1  0  0  0  0  0  0  0  0  0
   -9.1770   -3.4170  -23.0340 C   0  0  0  0  0  0  0  0  0  0  0  0
   -9.3840   -3.7980  -22.0290 H   0  0  0  0  0  0  0  0  0  0  0  0
   -9.0560   -4.2880  -23.7020 H   0  0  0  0  0  0  0  0  0  0  0  0
   -6.7360   -3.4870  -22.6940 N   0  0  0  0  0  0  0  0  0  0  0  0
   -6.0560   -3.1800  -21.5550 C   0  0  0  0  0  0  0  0  0  0  0  0
   -5.0830   -3.7300  -21.0940 O   0  0  0  0  0  0  0  0  0  0  0  0
   -6.7170   -2.0620  -21.0100 N   0  0  0  0  0  0  0  0  0  0  0  0
   -6.1300   -1.2190  -20.0250 C   0  0  0  0  0  0  0  0  0  0  0  0
   -6.5330   -1.3120  -18.7230 C   0  0  0  0  0  0  0  0  0  0  0  0
   -6.0380   -0.5410  -17.7240 N   0  0  0  0  0  0  0  0  0  0  0  0
   -5.1160    0.3390  -18.0320 C   0  0  0  0  0  0  0  0  0  0  0  0
   -4.6090    0.5390  -19.3450 C   0  0  0  0  0  0  0  0  0  0  0  0
   -3.6160    1.5100  -19.6410 C   0  0  0  0  0  0  0  0  0  0  0  0
   -3.1680    1.6730  -20.9200 C   0  0  0  0  0  0  0  0  0  0  0  0
   -3.6960    0.8760  -21.9630 C   0  0  0  0  0  0  0  0  0  0  0  0
   -4.6550   -0.0650  -21.7040 C   0  0  0  0  0  0  0  0  0  0  0  0
   -5.1310   -0.2610  -20.3810 C   0  0  0  0  0  0  0  0  0  0  0  0
   -5.0600   -0.6690  -22.5120 H   0  0  0  0  0  0  0  0  0  0  0  0
   -3.3460    1.0130  -22.9790 H   0  0  0  0  0  0  0  0  0  0  0  0
   -2.4140    2.4210  -21.1510 H   0  0  0  0  0  0  0  0  0  0  0  0
   -3.2350    2.1210  -18.8290 H   0  0  0  0  0  0  0  0  0  0  0  0
   -4.7250    0.9470  -17.2190 H   0  0  0  0  0  0  0  0  0  0  0  0
   -7.2930   -2.0300  -18.4240 H   0  0  0  0  0  0  0  0  0  0  0  0
   -7.7870   -1.6510  -21.8110 C   0  0  0  0  0  0  0  0  0  0  0  0
   -8.4870   -0.6970  -21.5790 O   0  0  0  0  0  0  0  0  0  0  0  0
   -6.4260   -4.2400  -23.2830 H   0  0  0  0  0  0  0  0  0  0  0  0
   -6.8200   -1.2460  -24.3000 H   0  0  0  0  0  0  0  0  0  0  0  0
   -7.5250   -2.6670  -25.1440 H   0  0  0  0  0  0  0  0  0  0  0  0
  -10.7410   -1.1550  -25.0990 H   0  0  0  0  0  0  0  0  0  0  0  0
   -9.8250   -2.6120  -25.6300 H   0  0  0  0  0  0  0  0  0  0  0  0
  -10.5450   -1.7870  -22.7850 H   0  0  0  0  0  0  0  0  0  0  0  0
  -11.4850   -4.1600  -24.5100 H   0  0  0  0  0  0  0  0  0  0  0  0
  -12.4260   -2.7390  -23.9490 H   0  0  0  0  0  0  0  0  0  0  0  0
  -11.8840   -3.9520  -22.7920 H   0  0  0  0  0  0  0  0  0  0  0  0
  1  2  1  0  0  0  0
  1 38  1  0  0  0  0
  1 39  1  0  0  0  0
  1 40  1  0  0  0  0
  2  3  1  0  0  0  0
  2  7  1  0  0  0  0
  2 37  1  1  0  0  0
  3  4  1  0  0  0  0
  3 35  1  0  0  0  0
  3 36  1  0  0  0  0
  4  5  1  0  0  0  0
  5  6  1  0  0  0  0
  5 33  1  0  0  0  0
  5 34  1  0  0  0  0
  6  7  1  0  0  0  0
  6 10  1  0  0  0  0
  6 30  1  1  0  0  0
  7  8  1  0  0  0  0
  7  9  1  0  0  0  0
 10 11  1  0  0  0  0
 10 32  1  0  0  0  0
 11 12  2  0  0  0  0
 11 13  1  0  0  0  0
 13 14  1  0  0  0  0
 13 30  1  0  0  0  0
 14 15  2  0  0  0  0
 14 23  1  0  0  0  0
 15 16  1  0  0  0  0
 15 29  1  0  0  0  0
 16 17  2  0  0  0  0
 17 18  1  0  0  0  0
 17 28  1  0  0  0  0
 18 19  2  0  0  0  0
 18 23  1  0  0  0  0
 19 20  1  0  0  0  0
 19 27  1  0  0  0  0
 20 21  2  0  0  0  0
 20 26  1  0  0  0  0
 21 22  1  0  0  0  0
 21 25  1  0  0  0  0
 22 23  2  0  0  0  0
 22 24  1  0  0  0  0
 30 31  2  0  0  0  0
M  END
>  <MODEL>
       1

$$$$
best_conformers_97.pdb
 OpenBabel01292518153D

 40 43  0  0  1  0  0  0  0  0999 V2000
   -8.9540   -5.1440  -24.7570 C   0  0  0  0  0  0  0  0  0  0  0  0
   -7.4610   -5.3420  -24.4920 C   0  0  2  0  0  0  0  0  0  0  0  0
   -7.2060   -6.6230  -23.6970 C   0  0  0  0  0  0  0  0  0  0  0  0
   -7.5990   -6.4890  -22.3480 O   0  0  0  0  0  0  0  0  0  0  0  0
   -6.7870   -5.5440  -21.6950 C   0  0  0  0  0  0  0  0  0  0  0  0
   -6.9760   -4.1270  -22.2630 C   0  0  1  0  0  0  0  0  0  0  0  0
   -6.7890   -4.1540  -23.7890 C   0  0  0  0  0  0  0  0  0  0  0  0
   -5.7120   -4.1740  -23.9880 H   0  0  0  0  0  0  0  0  0  0  0  0
   -7.1680   -3.2090  -24.1950 H   0  0  0  0  0  0  0  0  0  0  0  0
   -8.2330   -3.5250  -21.8520 N   0  0  0  0  0  0  0  0  0  0  0  0
   -8.1150   -2.4010  -21.0820 C   0  0  0  0  0  0  0  0  0  0  0  0
   -8.9950   -1.7260  -20.6130 O   0  0  0  0  0  0  0  0  0  0  0  0
   -6.7260   -2.1550  -20.9570 N   0  0  0  0  0  0  0  0  0  0  0  0
   -6.1550   -1.2360  -20.0140 C   0  0  0  0  0  0  0  0  0  0  0  0
   -6.5250   -1.2930  -18.6920 C   0  0  0  0  0  0  0  0  0  0  0  0
   -6.0160   -0.5200  -17.6950 N   0  0  0  0  0  0  0  0  0  0  0  0
   -5.0960    0.3640  -18.0090 C   0  0  0  0  0  0  0  0  0  0  0  0
   -4.6140    0.5460  -19.3370 C   0  0  0  0  0  0  0  0  0  0  0  0
   -3.6160    1.5190  -19.6360 C   0  0  0  0  0  0  0  0  0  0  0  0
   -3.1810    1.6850  -20.9260 C   0  0  0  0  0  0  0  0  0  0  0  0
   -3.7240    0.8960  -21.9620 C   0  0  0  0  0  0  0  0  0  0  0  0
   -4.6890   -0.0480  -21.6930 C   0  0  0  0  0  0  0  0  0  0  0  0
   -5.1560   -0.2630  -20.3710 C   0  0  0  0  0  0  0  0  0  0  0  0
   -5.1050   -0.6460  -22.4940 H   0  0  0  0  0  0  0  0  0  0  0  0
   -3.3840    1.0380  -22.9830 H   0  0  0  0  0  0  0  0  0  0  0  0
   -2.4260    2.4300  -21.1660 H   0  0  0  0  0  0  0  0  0  0  0  0
   -3.2100    2.1370  -18.8360 H   0  0  0  0  0  0  0  0  0  0  0  0
   -4.6890    0.9880  -17.2060 H   0  0  0  0  0  0  0  0  0  0  0  0
   -7.2730   -2.0100  -18.3710 H   0  0  0  0  0  0  0  0  0  0  0  0
   -5.9950   -3.1660  -21.5990 C   0  0  0  0  0  0  0  0  0  0  0  0
   -4.7930   -3.2720  -21.5760 O   0  0  0  0  0  0  0  0  0  0  0  0
   -9.1240   -3.9800  -21.9570 H   0  0  0  0  0  0  0  0  0  0  0  0
   -7.0490   -5.5630  -20.6430 H   0  0  0  0  0  0  0  0  0  0  0  0
   -5.7280   -5.8280  -21.7530 H   0  0  0  0  0  0  0  0  0  0  0  0
   -7.7800   -7.4600  -24.1060 H   0  0  0  0  0  0  0  0  0  0  0  0
   -6.1390   -6.8960  -23.7260 H   0  0  0  0  0  0  0  0  0  0  0  0
   -6.9710   -5.4640  -25.4660 H   0  0  0  0  0  0  0  0  0  0  0  0
   -9.1480   -4.1660  -25.2070 H   0  0  0  0  0  0  0  0  0  0  0  0
   -9.5500   -5.2230  -23.8430 H   0  0  0  0  0  0  0  0  0  0  0  0
   -9.3200   -5.9080  -25.4520 H   0  0  0  0  0  0  0  0  0  0  0  0
  1  2  1  0  0  0  0
  1 38  1  0  0  0  0
  1 39  1  0  0  0  0
  1 40  1  0  0  0  0
  2  3  1  0  0  0  0
  2  7  1  0  0  0  0
  2 37  1  6  0  0  0
  3  4  1  0  0  0  0
  3 35  1  0  0  0  0
  3 36  1  0  0  0  0
  4  5  1  0  0  0  0
  5  6  1  0  0  0  0
  5 33  1  0  0  0  0
  5 34  1  0  0  0  0
  6  7  1  0  0  0  0
  6 10  1  0  0  0  0
  6 30  1  1  0  0  0
  7  8  1  0  0  0  0
  7  9  1  0  0  0  0
 10 11  1  0  0  0  0
 10 32  1  0  0  0  0
 11 12  2  0  0  0  0
 11 13  1  0  0  0  0
 13 14  1  0  0  0  0
 13 30  1  0  0  0  0
 14 15  2  0  0  0  0
 14 23  1  0  0  0  0
 15 16  1  0  0  0  0
 15 29  1  0  0  0  0
 16 17  2  0  0  0  0
 17 18  1  0  0  0  0
 17 28  1  0  0  0  0
 18 19  2  0  0  0  0
 18 23  1  0  0  0  0
 19 20  1  0  0  0  0
 19 27  1  0  0  0  0
 20 21  2  0  0  0  0
 20 26  1  0  0  0  0
 21 22  1  0  0  0  0
 21 25  1  0  0  0  0
 22 23  2  0  0  0  0
 22 24  1  0  0  0  0
 30 31  2  0  0  0  0
M  END
>  <MODEL>
       2

$$$$
best_conformers_97.pdb
 OpenBabel01292518153D

 40 43  0  0  1  0  0  0  0  0999 V2000
   -8.9080   -5.4420  -24.5160 C   0  0  0  0  0  0  0  0  0  0  0  0
   -9.5260   -4.0490  -24.4070 C   0  0  2  0  0  0  0  0  0  0  0  0
   -9.1160   -3.1660  -25.5850 C   0  0  0  0  0  0  0  0  0  0  0  0
   -7.7650   -2.7610  -25.4940 O   0  0  0  0  0  0  0  0  0  0  0  0
   -7.5710   -1.9110  -24.3850 C   0  0  0  0  0  0  0  0  0  0  0  0
   -7.8300   -2.6370  -23.0490 C   0  0  1  0  0  0  0  0  0  0  0  0
   -9.2080   -3.3290  -23.0880 C   0  0  0  0  0  0  0  0  0  0  0  0
   -9.9710   -2.5630  -22.9020 H   0  0  0  0  0  0  0  0  0  0  0  0
   -9.2610   -4.0320  -22.2490 H   0  0  0  0  0  0  0  0  0  0  0  0
   -6.7490   -3.5420  -22.6950 N   0  0  0  0  0  0  0  0  0  0  0  0
   -6.0670   -3.2210  -21.5490 C   0  0  0  0  0  0  0  0  0  0  0  0
   -5.1070   -3.7680  -21.0570 O   0  0  0  0  0  0  0  0  0  0  0  0
   -6.7320   -2.0850  -21.0170 N   0  0  0  0  0  0  0  0  0  0  0  0
   -6.1460   -1.2270  -20.0200 C   0  0  0  0  0  0  0  0  0  0  0  0
   -6.5220   -1.2950  -18.7020 C   0  0  0  0  0  0  0  0  0  0  0  0
   -6.0180   -0.5200  -17.6990 N   0  0  0  0  0  0  0  0  0  0  0  0
   -5.0970    0.3650  -18.0060 C   0  0  0  0  0  0  0  0  0  0  0  0
   -4.6060    0.5510  -19.3310 C   0  0  0  0  0  0  0  0  0  0  0  0
   -3.6080    1.5200  -19.6350 C   0  0  0  0  0  0  0  0  0  0  0  0
   -3.1660    1.6710  -20.9240 C   0  0  0  0  0  0  0  0  0  0  0  0
   -3.6970    0.8690  -21.9560 C   0  0  0  0  0  0  0  0  0  0  0  0
   -4.6600   -0.0710  -21.6850 C   0  0  0  0  0  0  0  0  0  0  0  0
   -5.1430   -0.2580  -20.3620 C   0  0  0  0  0  0  0  0  0  0  0  0
   -5.0660   -0.6830  -22.4840 H   0  0  0  0  0  0  0  0  0  0  0  0
   -3.3450    0.9960  -22.9750 H   0  0  0  0  0  0  0  0  0  0  0  0
   -2.4080    2.4110  -21.1650 H   0  0  0  0  0  0  0  0  0  0  0  0
   -3.2060    2.1400  -18.8370 H   0  0  0  0  0  0  0  0  0  0  0  0
   -4.6880    0.9900  -17.2030 H   0  0  0  0  0  0  0  0  0  0  0  0
   -7.2780   -2.0100  -18.3880 H   0  0  0  0  0  0  0  0  0  0  0  0
   -7.7530   -1.6510  -21.8850 C   0  0  0  0  0  0  0  0  0  0  0  0
   -8.4260   -0.6640  -21.7340 O   0  0  0  0  0  0  0  0  0  0  0  0
   -6.3800   -4.2250  -23.3360 H   0  0  0  0  0  0  0  0  0  0  0  0
   -6.5310   -1.5600  -24.4160 H   0  0  0  0  0  0  0  0  0  0  0  0
   -8.2270   -1.0300  -24.4630 H   0  0  0  0  0  0  0  0  0  0  0  0
   -9.7510   -2.2670  -25.6450 H   0  0  0  0  0  0  0  0  0  0  0  0
   -9.2150   -3.7070  -26.5320 H   0  0  0  0  0  0  0  0  0  0  0  0
  -10.6160   -4.1720  -24.4580 H   0  0  0  0  0  0  0  0  0  0  0  0
   -9.0920   -6.0260  -23.6090 H   0  0  0  0  0  0  0  0  0  0  0  0
   -9.3470   -5.9860  -25.3590 H   0  0  0  0  0  0  0  0  0  0  0  0
   -7.8280   -5.4020  -24.6830 H   0  0  0  0  0  0  0  0  0  0  0  0
  1  2  1  0  0  0  0
  1 38  1  0  0  0  0
  1 39  1  0  0  0  0
  1 40  1  0  0  0  0
  2  3  1  0  0  0  0
  2  7  1  0  0  0  0
  2 37  1  6  0  0  0
  3  4  1  0  0  0  0
  3 35  1  0  0  0  0
  3 36  1  0  0  0  0
  4  5  1  0  0  0  0
  5  6  1  0  0  0  0
  5 33  1  0  0  0  0
  5 34  1  0  0  0  0
  6  7  1  0  0  0  0
  6 10  1  0  0  0  0
  6 30  1  1  0  0  0
  7  8  1  0  0  0  0
  7  9  1  0  0  0  0
 10 11  1  0  0  0  0
 10 32  1  0  0  0  0
 11 12  2  0  0  0  0
 11 13  1  0  0  0  0
 13 14  1  0  0  0  0
 13 30  1  0  0  0  0
 14 15  2  0  0  0  0
 14 23  1  0  0  0  0
 15 16  1  0  0  0  0
 15 29  1  0  0  0  0
 16 17  2  0  0  0  0
 17 18  1  0  0  0  0
 17 28  1  0  0  0  0
 18 19  2  0  0  0  0
 18 23  1  0  0  0  0
 19 20  1  0  0  0  0
 19 27  1  0  0  0  0
 20 21  2  0  0  0  0
 20 26  1  0  0  0  0
 21 22  1  0  0  0  0
 21 25  1  0  0  0  0
 22 23  2  0  0  0  0
 22 24  1  0  0  0  0
 30 31  2  0  0  0  0
M  END
>  <MODEL>
       3

$$$$
