
     RDKit          3D

 67 72  0  0  0  0  0  0  0  0999 V2000
    7.0428   -1.1935   18.4327 H   0  0  0  0  0  0  0  0  0  0  0  0
    6.2569   -0.4566   18.5918 C   0  0  0  0  0  0  0  0  0  0  0  0
    5.7698    0.1159   17.4625 N   0  0  0  0  0  0  0  0  0  0  0  0
    4.8064    0.9974   17.6065 C   0  0  0  0  0  0  0  0  0  0  0  0
    4.4186    1.4608   16.6985 H   0  0  0  0  0  0  0  0  0  0  0  0
    4.2408    1.3665   18.8606 C   0  0  0  0  0  0  0  0  0  0  0  0
    3.1787    2.3103   18.9534 C   0  0  0  0  0  0  0  0  0  0  0  0
    2.8188    2.7780   18.0391 H   0  0  0  0  0  0  0  0  0  0  0  0
    2.6304    2.6218   20.1670 C   0  0  0  0  0  0  0  0  0  0  0  0
    1.8261    3.3503   20.2378 H   0  0  0  0  0  0  0  0  0  0  0  0
    3.1134    1.9981   21.3399 C   0  0  0  0  0  0  0  0  0  0  0  0
    2.6750    2.2493   22.3008 H   0  0  0  0  0  0  0  0  0  0  0  0
    4.1396    1.0919   21.2741 C   0  0  0  0  0  0  0  0  0  0  0  0
    4.4995    0.6223   22.1823 H   0  0  0  0  0  0  0  0  0  0  0  0
    4.7543    0.7665   20.0317 C   0  0  0  0  0  0  0  0  0  0  0  0
    5.8459   -0.1514   19.8655 C   0  0  0  0  0  0  0  0  0  0  0  0
    6.4548   -0.7882   20.9774 N   0  0  0  0  0  0  0  0  0  0  0  0
    7.1028   -0.0945   21.9746 C   0  0  0  0  0  0  0  0  0  0  0  0
    7.2843    1.1075   21.9720 O   0  0  0  0  0  0  0  0  0  0  0  0
    7.5031   -1.0801   23.0891 C   0  0  1  0  0  0  0  0  0  0  0  0
    8.9489   -0.8890   23.5115 C   0  0  0  0  0  0  0  0  0  0  0  0
    9.9362   -0.6348   22.5508 C   0  0  0  0  0  0  0  0  0  0  0  0
    9.6673   -0.4979   21.5088 H   0  0  0  0  0  0  0  0  0  0  0  0
   11.2628   -0.5414   22.9360 C   0  0  0  0  0  0  0  0  0  0  0  0
   12.4933   -0.1918   21.7598 Cl  0  0  0  0  0  0  0  0  0  0  0  0
   11.6499   -0.7233   24.2632 C   0  0  0  0  0  0  0  0  0  0  0  0
   12.6989   -0.6543   24.5303 H   0  0  0  0  0  0  0  0  0  0  0  0
   10.6815   -1.0096   25.2062 C   0  0  0  0  0  0  0  0  0  0  0  0
   10.9384   -1.1987   26.2439 H   0  0  0  0  0  0  0  0  0  0  0  0
    9.3393   -1.0926   24.8353 C   0  0  0  0  0  0  0  0  0  0  0  0
    8.3425   -1.4966   25.8693 C   0  0  0  0  0  0  0  0  0  0  0  0
    8.7104   -1.9152   26.9541 O   0  0  0  0  0  0  0  0  0  0  0  0
    7.0229   -1.4202   25.5301 N   0  0  0  0  0  0  0  0  0  0  0  0
    6.0432   -1.6975   26.5738 C   0  0  0  0  0  0  0  0  0  0  0  0
    6.3416   -1.1666   27.4859 H   0  0  0  0  0  0  0  0  0  0  0  0
    5.0819   -1.2867   26.2410 H   0  0  0  0  0  0  0  0  0  0  0  0
    5.8782   -3.1938   26.9026 C   0  0  0  0  0  0  0  0  0  0  0  0
    6.8600   -3.6293   27.1278 H   0  0  0  0  0  0  0  0  0  0  0  0
    5.4805   -3.7276   26.0283 H   0  0  0  0  0  0  0  0  0  0  0  0
    4.9960   -3.4700   28.0248 N   0  0  0  0  0  0  0  0  0  0  0  0
    5.5022   -3.0106   29.3032 C   0  0  0  0  0  0  0  0  0  0  0  0
    6.5760   -3.2191   29.3412 H   0  0  0  0  0  0  0  0  0  0  0  0
    5.3492   -1.9252   29.4734 H   0  0  0  0  0  0  0  0  0  0  0  0
    4.8541   -3.8297   30.4057 C   0  0  0  0  0  0  0  0  0  0  0  0
    5.0058   -4.8990   30.2188 H   0  0  0  0  0  0  0  0  0  0  0  0
    5.1993   -3.5372   31.3987 H   0  0  0  0  0  0  0  0  0  0  0  0
    3.0844   -3.6444   30.4714 S   0  0  0  0  0  0  0  0  0  0  0  0
    2.5482   -4.7484   31.2535 O   0  0  0  0  0  0  0  0  0  0  0  0
    2.7719   -2.2602   30.8243 O   0  0  0  0  0  0  0  0  0  0  0  0
    2.6640   -3.8947   28.7507 C   0  0  0  0  0  0  0  0  0  0  0  0
    2.7110   -4.9754   28.5743 H   0  0  0  0  0  0  0  0  0  0  0  0
    1.6284   -3.5488   28.6770 H   0  0  0  0  0  0  0  0  0  0  0  0
    3.6017   -3.0997   27.8355 C   0  0  0  0  0  0  0  0  0  0  0  0
    3.4350   -2.0223   28.0183 H   0  0  0  0  0  0  0  0  0  0  0  0
    3.3229   -3.3336   26.8057 H   0  0  0  0  0  0  0  0  0  0  0  0
    6.5839   -0.7794   24.2994 C   0  0  0  0  0  0  0  0  0  0  0  0
    5.5699   -1.1403   24.0792 H   0  0  0  0  0  0  0  0  0  0  0  0
    6.5522    0.3170   24.4075 H   0  0  0  0  0  0  0  0  0  0  0  0
    7.2695   -2.4806   22.4149 C   0  0  1  0  0  0  0  0  0  0  0  0
    8.2468   -2.7528   21.9925 H   0  0  0  0  0  0  0  0  0  0  0  0
    6.8036   -3.6203   23.3251 C   0  0  0  0  0  0  0  0  0  0  0  0
    7.4724   -3.7474   24.1823 H   0  0  0  0  0  0  0  0  0  0  0  0
    6.7754   -4.5656   22.7754 H   0  0  0  0  0  0  0  0  0  0  0  0
    5.7970   -3.4325   23.7160 H   0  0  0  0  0  0  0  0  0  0  0  0
    6.3018   -2.2057   21.2524 C   0  0  0  0  0  0  0  0  0  0  0  0
    6.5397   -2.7803   20.3591 H   0  0  0  0  0  0  0  0  0  0  0  0
    5.2646   -2.4469   21.5268 H   0  0  0  0  0  0  0  0  0  0  0  0
  1  2  1  0
  2  3  2  0
  3  4  1  0
  4  5  1  0
  4  6  2  0
  6  7  1  0
  7  8  1  0
  7  9  2  0
  9 10  1  0
  9 11  1  0
 11 12  1  0
 11 13  2  0
 13 14  1  0
 13 15  1  0
 15 16  2  0
 16 17  1  0
 17 18  1  0
 18 19  2  0
 18 20  1  0
 20 21  1  0
 21 22  2  0
 22 23  1  0
 22 24  1  0
 24 25  1  0
 24 26  2  0
 26 27  1  0
 26 28  1  0
 28 29  1  0
 28 30  2  0
 30 31  1  0
 31 32  2  0
 31 33  1  0
 33 34  1  0
 34 35  1  0
 34 36  1  0
 34 37  1  0
 37 38  1  0
 37 39  1  0
 37 40  1  0
 40 41  1  0
 41 42  1  0
 41 43  1  0
 41 44  1  0
 44 45  1  0
 44 46  1  0
 44 47  1  0
 47 48  2  0
 47 49  2  0
 47 50  1  0
 50 51  1  0
 50 52  1  0
 50 53  1  0
 53 54  1  0
 53 55  1  0
 33 56  1  0
 56 57  1  0
 56 58  1  0
 20 59  1  0
 59 60  1  6
 59 61  1  0
 61 62  1  0
 61 63  1  0
 61 64  1  0
 59 65  1  0
 65 66  1  0
 65 67  1  0
 16  2  1  0
 65 17  1  0
 15  6  1  0
 20 56  1  1
 30 21  1  0
 53 40  1  0
M  END
>  <cnnaffinities>  (1) 
[6.53175, 6.62818, 6.22792, 6.49968, 6.55789, 6.52199, 6.52028, 6.55517, 6.61616, 6.53238, 6.53685, 6.55134, 6.44258, 6.49545, 6.51326, 6.48516]

>  <score>  (1) 
6.53175

>  <index>  (1) 
0

>  <Smiles>  (1) 
[H]c1nc([H])c2c([H])c([H])c([H])c([H])c2c1N1C(=O)[C@]2(c3c([H])c(Cl)c([H])c([H])c3C(=O)N(C([H])([H])C([H])([H])N3C([H])([H])C([H])([H])S(=O)(=O)C([H])([H])C3([H])[H])C2([H])[H])[C@@]([H])(C([H])([H])[H])C1([H])[H]

>  <h>  (1) 
<NA>

>  <Training>  (1) 
True

>  <Success>  (1) 
True

>  <enamine_searched>  (1) 
False

>  <enamine_id>  (1) 
nan

$$$$
